SandboxData_C2S7_20210305/C2S7N06473/scenario_001/case.raw
0,100.0,33,0,1,60.0
GRID OPTIMIZATION COMPETITION CHALLENGE 2
INPUT DATA FILES ARE RAW JSON CON
1,'23001010300',138.0,1,14,1,1,1.02234316,69.987377,1.1,0.9,1.1,0.9
2,'23001010700',345.0,1,14,1,1,1.03658164,70.912417,1.1,0.9,1.1,0.9
3,'23001010700',138.0,1,14,1,1,1.0248934,69.844005,1.1,0.9,1.1,0.9
4,'23001010800',138.0,1,14,1,1,1.02288425,69.948814,1.1,0.9,1.1,0.9
5,'23001020100',138.0,1,14,1,1,1.02185142,70.055112,1.1,0.9,1.1,0.9
6,'23001020200',138.0,1,14,1,1,1.02205873,69.999849,1.1,0.9,1.1,0.9
7,'23001020300',138.0,1,14,1,1,1.02142668,70.211264,1.1,0.9,1.1,0.9
8,'23001020400',138.0,1,14,1,1,1.02143586,70.122847,1.1,0.9,1.1,0.9
9,'23001020600',138.0,1,14,1,1,1.0197258,69.713897,1.1,0.9,1.1,0.9
10,'23001020800',138.0,1,14,1,1,1.02187812,70.582772,1.1,0.9,1.1,0.9
11,'23001020900',138.0,1,14,1,1,1.02217126,69.883709,1.1,0.9,1.1,0.9
12,'23001030100',138.0,1,14,1,1,1.0190357,69.458714,1.1,0.9,1.1,0.9
13,'23001030200',138.0,1,14,1,1,1.0184828,69.389511,1.1,0.9,1.1,0.9
14,'23001040000',138.0,1,14,1,1,1.01977956,69.313613,1.1,0.9,1.1,0.9
15,'23001042000',138.0,1,14,1,1,1.02386224,69.566167,1.1,0.9,1.1,0.9
16,'23001046000',138.0,1,14,1,1,1.02269661,69.731266,1.1,0.9,1.1,0.9
17,'23003950600',138.0,1,14,1,1,1.04416502,57.797033,1.1,0.9,1.1,0.9
18,'23003950700',138.0,1,14,1,1,1.04847682,58.384204,1.1,0.9,1.1,0.9
19,'23003950900',138.0,1,14,1,1,1.04699326,58.60122,1.1,0.9,1.1,0.9
20,'23003952000',230.0,1,14,1,1,1.04348171,61.267548,1.1,0.9,1.1,0.9
21,'23003952500',138.0,1,14,1,1,1.04066133,59.425986,1.1,0.9,1.1,0.9
22,'23003952700',138.0,1,14,1,1,1.04202962,60.033244,1.1,0.9,1.1,0.9
23,'23005000100',138.0,1,14,1,1,1.02040803,70.035004,1.1,0.9,1.1,0.9
24,'23005001800',138.0,1,14,1,1,1.02125084,69.866968,1.1,0.9,1.1,0.9
25,'23005002102',138.0,1,14,1,1,1.01933384,69.68062,1.1,0.9,1.1,0.9
26,'23005002200',138.0,1,14,1,1,1.02084684,69.825775,1.1,0.9,1.1,0.9
27,'23005002300',345.0,1,14,1,1,1.03463674,70.583967,1.1,0.9,1.1,0.9
28,'23005002300',138.0,1,14,1,1,1.02212715,69.954026,1.1,0.9,1.1,0.9
29,'23005002400',138.0,1,14,1,1,1.01815379,70.453654,1.1,0.9,1.1,0.9
30,'23005002501',345.0,1,14,1,1,1.03587437,70.509996,1.1,0.9,1.1,0.9
31,'23005002600',138.0,1,14,1,1,0.99352413,71.604869,1.1,0.9,1.1,0.9
32,'23005002800',138.0,1,14,1,1,0.99513191,71.782092,1.1,0.9,1.1,0.9
33,'23005002900',138.0,1,14,1,1,0.99671215,71.958536,1.1,0.9,1.1,0.9
34,'23005002900',230.0,1,14,1,1,1.00680053,73.450509,1.1,0.9,1.1,0.9
35,'23005003000',138.0,1,14,1,1,1.00368643,73.700623,1.1,0.9,1.1,0.9
36,'23005003100',138.0,1,14,1,1,1.00676298,72.358621,1.1,0.9,1.1,0.9
37,'23005003400',138.0,1,14,1,1,1.0079304,72.046775,1.1,0.9,1.1,0.9
38,'23005003500',138.0,1,14,1,1,1.00673032,72.353266,1.1,0.9,1.1,0.9
39,'23005003701',138.0,1,14,1,1,1.01044846,71.489206,1.1,0.9,1.1,0.9
40,'23005004001',138.0,1,14,1,1,1.00722516,74.364634,1.1,0.9,1.1,0.9
41,'23005004002',138.0,1,14,1,1,1.00676835,74.153868,1.1,0.9,1.1,0.9
42,'23005004502',138.0,1,14,1,1,1.02161431,69.113325,1.1,0.9,1.1,0.9
43,'23005004701',138.0,1,14,1,1,1.02054679,69.213176,1.1,0.9,1.1,0.9
44,'23005004702',138.0,1,14,1,1,1.02156448,69.3356,1.1,0.9,1.1,0.9
45,'23005004801',138.0,1,14,1,1,1.01918566,69.055733,1.1,0.9,1.1,0.9
46,'23005011100',138.0,1,14,1,1,1.01952338,67.921662,1.1,0.9,1.1,0.9
47,'23005011100',345.0,1,14,1,1,1.03359771,69.697033,1.1,0.9,1.1,0.9
48,'23005011202',138.0,1,14,1,1,1.01835108,67.791123,1.1,0.9,1.1,0.9
49,'23005011500',138.0,1,14,1,1,1.02251184,69.483098,1.1,0.9,1.1,0.9
50,'23005017002',138.0,1,14,1,1,1.00274003,73.695412,1.1,0.9,1.1,0.9
51,'23005017101',138.0,1,14,1,1,1.02061594,68.633108,1.1,0.9,1.1,0.9
52,'23005017102',138.0,1,14,1,1,1.02014649,68.362189,1.1,0.9,1.1,0.9
53,'23005017301',138.0,1,14,1,1,1.00400639,72.907994,1.1,0.9,1.1,0.9
54,'23005017301',230.0,1,14,1,1,1.00744736,73.243957,1.1,0.9,1.1,0.9
55,'23007971400',138.0,1,14,1,1,1.03447938,70.154321,1.1,0.9,1.1,0.9
56,'23009965300',138.0,1,14,1,1,1.02219808,67.382364,1.1,0.9,1.1,0.9
57,'23009965503',138.0,1,14,1,1,1.01283491,65.475348,1.1,0.9,1.1,0.9
58,'23009965504',138.0,1,14,1,1,1.01536572,65.763746,1.1,0.9,1.1,0.9
59,'23009965900',138.0,1,14,1,1,1.00559664,65.505667,1.1,0.9,1.1,0.9
60,'23011010200',138.0,1,14,1,1,1.01053405,67.884123,1.1,0.9,1.1,0.9
61,'23011010600',138.0,1,14,1,1,1.00868106,66.145956,1.1,0.9,1.1,0.9
62,'23011019000',138.0,1,14,1,1,1.01390696,65.795048,1.1,0.9,1.1,0.9
63,'23011021000',138.0,1,14,1,1,1.02305233,55.692744,1.1,0.9,1.1,0.9
64,'23011022000',138.0,1,14,1,1,1.02134788,55.319683,1.1,0.9,1.1,0.9
65,'23011023001',138.0,1,14,1,1,1.02029192,55.05252,1.1,0.9,1.1,0.9
66,'23011023002',138.0,1,14,1,1,1.02005768,54.947444,1.1,0.9,1.1,0.9
67,'23011024101',138.0,1,14,1,1,1.0280869,53.880955,1.1,0.9,1.1,0.9
68,'23011024102',138.0,1,14,1,1,1.0282234,53.760931,1.1,0.9,1.1,0.9
69,'23011024200',138.0,1,14,1,1,1.02877235,53.640969,1.1,0.9,1.1,0.9
70,'23013970200',138.0,1,14,1,1,1.00715435,65.824043,1.1,0.9,1.1,0.9
71,'23013970400',138.0,1,14,1,1,1.00619817,65.778909,1.1,0.9,1.1,0.9
72,'23013970500',138.0,1,14,1,1,1.00570083,65.675814,1.1,0.9,1.1,0.9
73,'23013970700',138.0,1,14,1,1,1.00476515,65.5945,1.1,0.9,1.1,0.9
74,'23015975100',138.0,1,14,1,1,1.01142299,65.900233,1.1,0.9,1.1,0.9
75,'23015975200',138.0,1,14,1,1,1.00779665,66.024058,1.1,0.9,1.1,0.9
76,'23015975300',138.0,1,14,1,1,1.0091157,66.240172,1.1,0.9,1.1,0.9
77,'23015975400',138.0,1,14,1,1,1.01062894,66.500252,1.1,0.9,1.1,0.9
78,'23015975500',138.0,1,14,1,1,1.01221609,66.779873,1.1,0.9,1.1,0.9
79,'23015975600',138.0,1,14,1,1,1.00936854,66.285265,1.1,0.9,1.1,0.9
80,'23015975700',138.0,1,14,1,1,1.01019776,66.435208,1.1,0.9,1.1,0.9
81,'23015975800',138.0,1,14,1,1,1.01101971,66.591394,1.1,0.9,1.1,0.9
82,'23015976200',138.0,1,14,1,1,1.01211667,66.782905,1.1,0.9,1.1,0.9
83,'23017965100',138.0,1,14,1,1,1.03350019,67.264386,1.1,0.9,1.1,0.9
84,'23017965400',138.0,1,14,1,1,1.0397141,70.1579,1.1,0.9,1.1,0.9
85,'23017965500',138.0,1,14,1,1,1.04195392,71.426382,1.1,0.9,1.1,0.9
86,'23017965500',345.0,1,14,1,1,1.0440166,72.577768,1.1,0.9,1.1,0.9
87,'23017965700',138.0,1,14,1,1,1.031528,70.011126,1.1,0.9,1.1,0.9
88,'23017965800',138.0,1,14,1,1,1.02884352,69.721471,1.1,0.9,1.1,0.9
89,'23017966100',138.0,1,14,1,1,1.02648401,69.508274,1.1,0.9,1.1,0.9
90,'23017966200',138.0,1,14,1,1,1.02487421,69.386013,1.1,0.9,1.1,0.9
91,'23017966500',138.0,1,14,1,1,1.02524304,69.506402,1.1,0.9,1.1,0.9
92,'23019000200',138.0,1,14,1,1,1.02446818,66.759567,1.1,0.9,1.1,0.9
93,'23019000300',138.0,1,14,1,1,1.02509594,66.912139,1.1,0.9,1.1,0.9
94,'23019000400',138.0,1,14,1,1,1.024436,66.714235,1.1,0.9,1.1,0.9
95,'23019000500',138.0,1,14,1,1,1.02448332,66.683916,1.1,0.9,1.1,0.9
96,'23019000700',345.0,1,14,1,1,1.03578019,69.397065,1.1,0.9,1.1,0.9
97,'23019000700',138.0,1,14,1,1,1.02467632,66.637675,1.1,0.9,1.1,0.9
98,'23019002000',138.0,1,14,1,1,1.02041209,64.909145,1.1,0.9,1.1,0.9
99,'23019005000',138.0,1,14,1,1,1.02660584,66.981561,1.1,0.9,1.1,0.9
100,'23019007200',138.0,1,14,1,1,1.02689588,65.664284,1.1,0.9,1.1,0.9
101,'23019009000',138.0,1,14,1,1,1.02276933,66.673383,1.1,0.9,1.1,0.9
102,'23019010000',138.0,1,14,1,1,1.02273691,66.332837,1.1,0.9,1.1,0.9
103,'23019011000',138.0,1,14,1,1,1.02084291,66.018068,1.1,0.9,1.1,0.9
104,'23019012500',138.0,1,14,1,1,1.01923144,65.744976,1.1,0.9,1.1,0.9
105,'23019015000',138.0,1,14,1,1,1.00944769,59.330862,1.1,0.9,1.1,0.9
106,'23019020500',138.0,1,14,1,1,1.00911152,59.185741,1.1,0.9,1.1,0.9
107,'23019027000',138.0,1,14,1,1,1.03944468,62.043321,1.1,0.9,1.1,0.9
108,'23019029000',138.0,1,14,1,1,1.04951704,63.515739,1.1,0.9,1.1,0.9
109,'23019030000',138.0,1,14,1,1,1.04620636,63.572792,1.1,0.9,1.1,0.9
110,'23019031000',138.0,1,14,1,1,1.04338217,62.682736,1.1,0.9,1.1,0.9
111,'23019031100',138.0,1,14,1,1,1.02371871,66.763187,1.1,0.9,1.1,0.9
112,'23019031200',138.0,1,14,1,1,1.00902796,59.186376,1.1,0.9,1.1,0.9
113,'23021960302',138.0,1,14,1,1,1.05041313,63.480058,1.1,0.9,1.1,0.9
114,'23021960700',138.0,1,14,1,1,1.01416445,59.851793,1.1,0.9,1.1,0.9
115,'23021960800',138.0,1,14,1,1,1.03366613,61.857007,1.1,0.9,1.1,0.9
116,'23021960900',138.0,1,14,1,1,1.03759861,62.313284,1.1,0.9,1.1,0.9
117,'23023970500',138.0,1,14,1,1,1.01650298,67.470104,1.1,0.9,1.1,0.9
118,'23023970600',138.0,1,14,1,1,1.01621616,67.455338,1.1,0.9,1.1,0.9
119,'23025965700',138.0,1,14,1,1,1.00759232,59.255941,1.1,0.9,1.1,0.9
120,'23025965900',138.0,1,14,1,1,1.00563633,59.237869,1.1,0.9,1.1,0.9
121,'23025966000',138.0,1,14,1,1,1.01706243,57.516238,1.1,0.9,1.1,0.9
122,'23025966500',138.0,1,14,1,1,1.00679839,59.857995,1.1,0.9,1.1,0.9
123,'23025966600',138.0,1,14,1,1,1.00590384,59.532544,1.1,0.9,1.1,0.9
124,'23025966700',138.0,1,14,1,1,1.00567138,59.527578,1.1,0.9,1.1,0.9
125,'23025966800',138.0,1,14,1,1,1.02847862,54.329661,1.1,0.9,1.1,0.9
126,'23025966900',138.0,1,14,1,1,1.00566185,59.621548,1.1,0.9,1.1,0.9
127,'23027042000',345.0,1,14,1,1,1.03179562,68.76506,1.1,0.9,1.1,0.9
128,'23027042000',138.0,1,14,1,1,1.02431929,67.82177,1.1,0.9,1.1,0.9
129,'23027043000',138.0,1,14,1,1,1.01535559,66.770133,1.1,0.9,1.1,0.9
130,'23027044000',138.0,1,14,1,1,1.01077342,66.228793,1.1,0.9,1.1,0.9
131,'23027046001',138.0,1,14,1,1,1.01857221,65.665828,1.1,0.9,1.1,0.9
132,'23027046002',138.0,1,14,1,1,1.01854265,65.620756,1.1,0.9,1.1,0.9
133,'23029955400',138.0,1,14,1,1,1.03074753,56.916089,1.1,0.9,1.1,0.9
134,'23029955800',138.0,1,14,1,1,1.0266521,55.986053,1.1,0.9,1.1,0.9
135,'23029956300',138.0,1,14,1,1,1.02475512,55.746966,1.1,0.9,1.1,0.9
136,'23031005200',138.0,1,14,1,1,1.00177109,71.726521,1.1,0.9,1.1,0.9
137,'23031005300',138.0,1,14,1,1,1.00209832,71.375805,1.1,0.9,1.1,0.9
138,'23031020000',138.0,1,14,1,1,1.00823987,73.43818,1.1,0.9,1.1,0.9
139,'23031021000',138.0,1,14,1,1,1.00995433,72.933621,1.1,0.9,1.1,0.9
140,'23031023500',138.0,1,14,1,1,1.01869488,71.48086,1.1,0.9,1.1,0.9
141,'23031024000',138.0,1,14,1,1,1.01313305,72.210003,1.1,0.9,1.1,0.9
142,'23031025100',138.0,1,14,1,1,1.00389552,71.27493,1.1,0.9,1.1,0.9
143,'23031025202',138.0,1,14,1,1,1.00171268,71.234659,1.1,0.9,1.1,0.9
144,'23031025300',138.0,1,14,1,1,1.00259101,71.144528,1.1,0.9,1.1,0.9
145,'23031027000',138.0,1,14,1,1,1.00409353,71.026686,1.1,0.9,1.1,0.9
146,'23031028002',138.0,1,14,1,1,1.00597775,70.938877,1.1,0.9,1.1,0.9
147,'23031030201',138.0,1,14,1,1,1.01665175,69.574438,1.1,0.9,1.1,0.9
148,'23031030202',138.0,1,14,1,1,1.01756239,69.679944,1.1,0.9,1.1,0.9
149,'23031030300',138.0,1,14,1,1,1.0200237,69.967099,1.1,0.9,1.1,0.9
150,'23031034001',138.0,1,14,1,1,1.00963962,71.001237,1.1,0.9,1.1,0.9
151,'23031036001',138.0,1,14,1,1,1.02007663,71.508652,1.1,0.9,1.1,0.9
152,'23031037000',138.0,1,14,1,1,1.03908455,72.15265,1.1,0.9,1.1,0.9
153,'23031038001',138.0,1,14,1,1,1.02474797,71.811461,1.1,0.9,1.1,0.9
154,'25001011002',138.0,1,16,1,1,1.03153813,64.756682,1.1,0.9,1.1,0.9
155,'25001012001',138.0,1,16,1,1,1.03403914,65.023954,1.1,0.9,1.1,0.9
156,'25001012602',138.0,1,16,1,1,1.04048848,65.671955,1.1,0.9,1.1,0.9
157,'25001013400',138.0,1,16,1,1,1.02610612,66.183966,1.1,0.9,1.1,0.9
158,'25001013500',138.0,1,16,1,1,1.02271926,65.957156,1.1,0.9,1.1,0.9
159,'25001013600',138.0,1,16,1,1,1.02079737,65.860079,1.1,0.9,1.1,0.9
160,'25001013700',345.0,1,16,1,1,1.0244962,68.080109,1.1,0.9,1.1,0.9
161,'25001013700',138.0,1,16,1,1,1.01937282,66.915561,1.1,0.9,1.1,0.9
162,'25001013800',138.0,1,16,1,1,1.02537584,66.580623,1.1,0.9,1.1,0.9
163,'25001014100',138.0,1,16,1,1,1.02083743,66.048605,1.1,0.9,1.1,0.9
164,'25001014500',138.0,1,16,1,1,1.01570368,65.203356,1.1,0.9,1.1,0.9
165,'25001014600',138.0,1,16,1,1,1.01519942,65.137315,1.1,0.9,1.1,0.9
166,'25001014700',138.0,1,16,1,1,1.01481116,65.087571,1.1,0.9,1.1,0.9
167,'25001014800',138.0,1,16,1,1,1.01452196,65.051733,1.1,0.9,1.1,0.9
168,'25001014900',138.0,1,16,1,1,1.0103997,65.095828,1.1,0.9,1.1,0.9
169,'25001015100',138.0,1,16,1,1,1.01668477,65.334263,1.1,0.9,1.1,0.9
170,'25001015300',138.0,1,16,1,1,1.04097307,65.726323,1.1,0.9,1.1,0.9
171,'25001015300',345.0,1,16,1,1,1.01418602,67.514665,1.1,0.9,1.1,0.9
172,'25003900100',138.0,1,16,1,1,1.02641702,76.682684,1.1,0.9,1.1,0.9
173,'25003900200',138.0,1,16,1,1,1.02627373,76.664352,1.1,0.9,1.1,0.9
174,'25003900300',138.0,1,16,1,1,1.02619958,76.65481,1.1,0.9,1.1,0.9
175,'25003900800',138.0,1,16,1,1,1.02523696,76.242984,1.1,0.9,1.1,0.9
176,'25003913100',138.0,1,16,1,1,1.02375114,75.553353,1.1,0.9,1.1,0.9
177,'25003914100',138.0,1,16,1,1,0.95542306,66.635223,1.1,0.9,1.1,0.9
178,'25003920101',138.0,1,16,1,1,1.01390707,72.341443,1.1,0.9,1.1,0.9
179,'25003921300',138.0,1,16,1,1,1.01868904,72.899176,1.1,0.9,1.1,0.9
180,'25003921500',138.0,1,16,1,1,1.01567757,72.545188,1.1,0.9,1.1,0.9
181,'25003935300',138.0,1,16,1,1,1.01718044,72.720983,1.1,0.9,1.1,0.9
182,'25005600202',138.0,1,16,1,1,1.01442587,68.080703,1.1,0.9,1.1,0.9
183,'25005610100',138.0,1,16,1,1,1.00724757,68.345817,1.1,0.9,1.1,0.9
184,'25005610202',138.0,1,16,1,1,1.00795555,68.429002,1.1,0.9,1.1,0.9
185,'25005610203',138.0,1,16,1,1,1.01293206,67.846666,1.1,0.9,1.1,0.9
186,'25005610204',138.0,1,16,1,1,1.0122385,67.749377,1.1,0.9,1.1,0.9
187,'25005611101',138.0,1,16,1,1,1.01477683,68.094787,1.1,0.9,1.1,0.9
188,'25005611102',138.0,1,16,1,1,1.01919067,69.624209,1.1,0.9,1.1,0.9
189,'25005611202',138.0,1,16,1,1,1.00954175,68.617945,1.1,0.9,1.1,0.9
190,'25005612100',138.0,1,16,1,1,1.01586378,68.272727,1.1,0.9,1.1,0.9
191,'25005612200',138.0,1,16,1,1,1.01719248,68.856708,1.1,0.9,1.1,0.9
192,'25005613100',345.0,1,16,1,1,1.02577138,69.722578,1.1,0.9,1.1,0.9
193,'25005613100',138.0,1,16,1,1,1.01709521,68.401708,1.1,0.9,1.1,0.9
194,'25005613300',138.0,1,16,1,1,1.0204792,69.77071,1.1,0.9,1.1,0.9
195,'25005613400',138.0,1,16,1,1,1.02138662,69.877972,1.1,0.9,1.1,0.9
196,'25005613700',138.0,1,16,1,1,1.02036726,69.784214,1.1,0.9,1.1,0.9
197,'25005613902',138.0,1,16,1,1,1.02267778,70.033905,1.1,0.9,1.1,0.9
198,'25005617101',138.0,1,16,1,1,1.01717782,68.431467,1.1,0.9,1.1,0.9
199,'25005630102',138.0,1,16,1,1,1.0048058,71.205521,1.1,0.9,1.1,0.9
200,'25005630300',138.0,1,16,1,1,1.00561202,71.299696,1.1,0.9,1.1,0.9
...
0 / END OF BUS DATA BEGIN LOAD DATA
3065,'NJ',1,24,1,73.8,20.295,0.0,0.0,0.0,0.0,1,1,0
3120,'PA',1,24,1,82.0,22.55,0.0,0.0,0.0,0.0,1,1,0
3126,'PA',1,24,1,102.5,28.187,0.0,0.0,0.0,0.0,1,1,0
3365,'HO',1,52,1,100.0,27.5,0.0,0.0,0.0,0.0,1,1,0
10001,'10',1,14,2,6.7,1.843,0.0,0.0,0.0,0.0,1,1,0
10001,'20',1,14,2,6.7,1.843,0.0,0.0,0.0,0.0,1,1,0
10003,'10',1,14,2,31.31,8.61,0.0,0.0,0.0,0.0,1,1,0
10003,'1A',1,14,2,46.6,12.815,0.0,0.0,0.0,0.0,1,1,0
10004,'1A',1,14,2,3.72,1.023,0.0,0.0,0.0,0.0,1,1,0
10005,'10',1,14,2,7.6,2.09,0.0,0.0,0.0,0.0,1,1,0
10005,'20',1,14,2,7.6,2.09,0.0,0.0,0.0,0.0,1,1,0
10006,'1A',1,14,2,8.6,2.365,0.0,0.0,0.0,0.0,1,1,0
10007,'10',1,14,2,9.3,2.558,0.0,0.0,0.0,0.0,1,1,0
10007,'20',1,14,2,9.3,2.558,0.0,0.0,0.0,0.0,1,1,0
10008,'10',1,14,2,4.8,1.32,0.0,0.0,0.0,0.0,1,1,0
10008,'20',1,14,2,4.8,1.32,0.0,0.0,0.0,0.0,1,1,0
10009,'10',1,14,2,6.6,1.815,0.0,0.0,0.0,0.0,1,1,0
10009,'20',1,14,2,6.6,1.815,0.0,0.0,0.0,0.0,1,1,0
10010,'10',1,14,2,16.2,4.455,0.0,0.0,0.0,0.0,1,1,0
10010,'20',1,14,2,16.2,4.455,0.0,0.0,0.0,0.0,1,1,0
10011,'1A',1,14,2,4.84,1.331,0.0,0.0,0.0,0.0,1,1,0
10012,'1A',1,14,2,11.29,3.105,0.0,0.0,0.0,0.0,1,1,0
10013,'10',1,14,2,5.4,1.485,0.0,0.0,0.0,0.0,1,1,0
10013,'20',1,14,2,5.4,1.485,0.0,0.0,0.0,0.0,1,1,0
10014,'1A',1,14,2,4.0,1.1,0.0,0.0,0.0,0.0,1,1,0
10015,'10',1,14,2,5.1,1.402,0.0,0.0,0.0,0.0,1,1,0
10015,'20',1,14,2,5.1,1.402,0.0,0.0,0.0,0.0,1,1,0
10016,'1A',1,14,2,4.3,1.183,0.0,0.0,0.0,0.0,1,1,0
10017,'10',1,14,2,4.5,1.238,0.0,0.0,0.0,0.0,1,1,0
10017,'20',1,14,2,4.5,1.238,0.0,0.0,0.0,0.0,1,1,0
10018,'1A',1,14,2,2.96,0.814,0.0,0.0,0.0,0.0,1,1,0
10019,'10',1,14,2,10.6,2.915,0.0,0.0,0.0,0.0,1,1,0
10019,'20',1,14,2,10.6,2.915,0.0,0.0,0.0,0.0,1,1,0
10020,'10',1,14,2,16.2,4.455,0.0,0.0,0.0,0.0,1,1,0
10020,'20',1,14,2,16.2,4.455,0.0,0.0,0.0,0.0,1,1,0
10021,'10',1,14,2,8.6,2.365,0.0,0.0,0.0,0.0,1,1,0
10021,'20',1,14,2,8.6,2.365,0.0,0.0,0.0,0.0,1,1,0
10022,'10',1,14,2,7.3,2.007,0.0,0.0,0.0,0.0,1,1,0
10022,'20',1,14,2,7.3,2.007,0.0,0.0,0.0,0.0,1,1,0
10023,'10',1,14,2,16.3,4.483,0.0,0.0,0.0,0.0,1,1,0
10023,'20',1,14,2,16.3,4.483,0.0,0.0,0.0,0.0,1,1,0
10024,'10',1,14,2,18.2,5.005,0.0,0.0,0.0,0.0,1,1,0
10024,'20',1,14,2,18.2,5.005,0.0,0.0,0.0,0.0,1,1,0
10025,'10',1,14,2,20.5,5.638,0.0,0.0,0.0,0.0,1,1,0
10025,'20',1,14,2,20.5,5.638,0.0,0.0,0.0,0.0,1,1,0
10026,'1A',1,14,2,10.21,2.808,0.0,0.0,0.0,0.0,1,1,0
10028,'1A',1,14,2,8.28,2.277,0.0,0.0,0.0,0.0,1,1,0
10029,'1A',1,14,2,1.38,0.38,0.0,0.0,0.0,0.0,1,1,0
10030,'1A',1,14,2,5.8,1.595,0.0,0.0,0.0,0.0,1,1,0
10031,'10',1,14,2,12.92,3.553,0.0,0.0,0.0,0.0,1,1,0
10031,'20',1,14,2,12.92,3.553,0.0,0.0,0.0,0.0,1,1,0
10032,'10',1,14,2,11.1,3.053,0.0,0.0,0.0,0.0,1,1,0
10032,'20',1,14,2,11.1,3.053,0.0,0.0,0.0,0.0,1,1,0
10033,'10',1,14,2,12.1,3.328,0.0,0.0,0.0,0.0,1,1,0
10035,'10',1,14,2,3.32,0.913,0.0,0.0,0.0,0.0,1,1,0
10035,'1A',1,14,2,47.67,13.109,0.0,0.0,0.0,0.0,1,1,0
10035,'20',1,14,2,3.32,0.913,0.0,0.0,0.0,0.0,1,1,0
10036,'1A',1,14,2,51.77,14.237,0.0,0.0,0.0,0.0,1,1,0
10037,'10',1,14,2,3.8,1.045,0.0,0.0,0.0,0.0,1,1,0
10037,'20',1,14,2,3.8,1.045,0.0,0.0,0.0,0.0,1,1,0
10038,'10',1,14,2,1.0,0.275,0.0,0.0,0.0,0.0,1,1,0
10038,'20',1,14,2,1.0,0.275,0.0,0.0,0.0,0.0,1,1,0
10039,'10',1,14,2,11.4,3.135,0.0,0.0,0.0,0.0,1,1,0
10039,'20',1,14,2,11.4,3.135,0.0,0.0,0.0,0.0,1,1,0
10040,'1A',1,14,2,6.42,1.766,0.0,0.0,0.0,0.0,1,1,0
10041,'10',1,14,2,10.19,2.802,0.0,0.0,0.0,0.0,1,1,0
10041,'20',1,14,2,10.19,2.802,0.0,0.0,0.0,0.0,1,1,0
10042,'10',1,14,2,7.5,2.063,0.0,0.0,0.0,0.0,1,1,0
10042,'20',1,14,2,7.5,2.063,0.0,0.0,0.0,0.0,1,1,0
10043,'1A',1,14,2,2.01,0.553,0.0,0.0,0.0,0.0,1,1,0
10044,'1A',1,14,2,7.45,2.049,0.0,0.0,0.0,0.0,1,1,0
10045,'10',1,14,2,9.6,2.64,0.0,0.0,0.0,0.0,1,1,0
10045,'20',1,14,2,9.6,2.64,0.0,0.0,0.0,0.0,1,1,0
10046,'10',1,14,2,47.6,13.09,0.0,0.0,0.0,0.0,1,1,0
10048,'10',1,14,2,11.5,3.162,0.0,0.0,0.0,0.0,1,1,0
10048,'20',1,14,2,11.5,3.162,0.0,0.0,0.0,0.0,1,1,0
10049,'10',1,14,2,4.9,1.347,0.0,0.0,0.0,0.0,1,1,0
10049,'20',1,14,2,4.9,1.347,0.0,0.0,0.0,0.0,1,1,0
10050,'10',1,14,2,12.01,3.303,0.0,0.0,0.0,0.0,1,1,0
10050,'20',1,14,2,12.01,3.303,0.0,0.0,0.0,0.0,1,1,0
10051,'1A',1,14,2,2.03,0.558,0.0,0.0,0.0,0.0,1,1,0
10052,'1A',1,14,2,4.34,1.194,0.0,0.0,0.0,0.0,1,1,0
10053,'10',1,14,2,1.27,0.349,0.0,0.0,0.0,0.0,1,1,0
10055,'10',1,14,2,14.2,3.905,0.0,0.0,0.0,0.0,1,1,0
10055,'20',1,14,2,14.2,3.905,0.0,0.0,0.0,0.0,1,1,0
10056,'10',1,14,2,23.1,6.352,0.0,0.0,0.0,0.0,1,1,0
10056,'20',1,14,2,23.1,6.352,0.0,0.0,0.0,0.0,1,1,0
10057,'10',1,14,2,10.9,2.997,0.0,0.0,0.0,0.0,1,1,0
10057,'20',1,14,2,10.9,2.997,0.0,0.0,0.0,0.0,1,1,0
10058,'1A',1,14,2,4.38,1.204,0.0,0.0,0.0,0.0,1,1,0
10059,'10',1,14,2,14.65,4.029,0.0,0.0,0.0,0.0,1,1,0
10059,'20',1,14,2,14.65,4.029,0.0,0.0,0.0,0.0,1,1,0
10060,'10',1,14,2,19.66,5.407,0.0,0.0,0.0,0.0,1,1,0
10060,'20',1,14,2,19.66,5.407,0.0,0.0,0.0,0.0,1,1,0
10061,'10',1,14,2,22.66,6.232,0.0,0.0,0.0,0.0,1,1,0
10061,'20',1,14,2,22.66,6.232,0.0,0.0,0.0,0.0,1,1,0
10062,'1A',1,14,2,2.26,0.622,0.0,0.0,0.0,0.0,1,1,0
10063,'1A',1,14,2,3.5,0.962,0.0,0.0,0.0,0.0,1,1,0
10064,'10',1,14,2,3.28,0.902,0.0,0.0,0.0,0.0,1,1,0
10064,'20',1,14,2,3.28,0.902,0.0,0.0,0.0,0.0,1,1,0
10065,'10',1,14,2,4.19,1.152,0.0,0.0,0.0,0.0,1,1,0
10065,'20',1,14,2,4.19,1.152,0.0,0.0,0.0,0.0,1,1,0
10066,'10',1,14,2,7.92,2.178,0.0,0.0,0.0,0.0,1,1,0
10066,'20',1,14,2,7.92,2.178,0.0,0.0,0.0,0.0,1,1,0
10067,'10',1,14,2,4.64,1.276,0.0,0.0,0.0,0.0,1,1,0
10067,'20',1,14,2,4.64,1.276,0.0,0.0,0.0,0.0,1,1,0
10068,'10',1,14,2,4.46,1.226,0.0,0.0,0.0,0.0,1,1,0
10068,'20',1,14,2,4.46,1.226,0.0,0.0,0.0,0.0,1,1,0
10069,'10',1,14,2,10.65,2.929,0.0,0.0,0.0,0.0,1,1,0
10069,'20',1,14,2,10.65,2.929,0.0,0.0,0.0,0.0,1,1,0
10070,'1A',1,14,2,7.19,1.977,0.0,0.0,0.0,0.0,1,1,0
10071,'10',1,14,2,13.74,3.779,0.0,0.0,0.0,0.0,1,1,0
10071,'20',1,14,2,13.74,3.779,0.0,0.0,0.0,0.0,1,1,0
10072,'1A',1,14,2,6.51,1.79,0.0,0.0,0.0,0.0,1,1,0
10073,'10',1,14,2,14.65,4.029,0.0,0.0,0.0,0.0,1,1,0
10073,'20',1,14,2,14.65,4.029,0.0,0.0,0.0,0.0,1,1,0
10074,'1A',1,14,2,5.22,1.436,0.0,0.0,0.0,0.0,1,1,0
10075,'1A',1,14,2,7.58,2.084,0.0,0.0,0.0,0.0,1,1,0
10076,'1A',1,14,2,3.82,1.05,0.0,0.0,0.0,0.0,1,1,0
10077,'1A',1,14,2,3.68,1.012,0.0,0.0,0.0,0.0,1,1,0
10078,'1A',1,14,2,10.58,2.91,0.0,0.0,0.0,0.0,1,1,0
10079,'1A',1,14,2,4.98,1.37,0.0,0.0,0.0,0.0,1,1,0
10080,'1A',1,14,2,1.7,0.468,0.0,0.0,0.0,0.0,1,1,0
10081,'1A',1,14,2,6.65,1.829,0.0,0.0,0.0,0.0,1,1,0
10082,'1A',1,14,2,8.93,2.456,0.0,0.0,0.0,0.0,1,1,0
10083,'10',1,14,2,8.1,2.228,0.0,0.0,0.0,0.0,1,1,0
10083,'20',1,14,2,8.1,2.228,0.0,0.0,0.0,0.0,1,1,0
10084,'10',1,14,2,5.3,1.457,0.0,0.0,0.0,0.0,1,1,0
10084,'20',1,14,2,5.3,1.457,0.0,0.0,0.0,0.0,1,1,0
10085,'10',1,14,2,41.4,11.385,0.0,0.0,0.0,0.0,1,1,0
10087,'1A',1,14,2,5.54,1.523,0.0,0.0,0.0,0.0,1,1,0
10088,'1A',1,14,2,3.77,1.037,0.0,0.0,0.0,0.0,1,1,0
10089,'1A',1,14,2,1.77,0.487,0.0,0.0,0.0,0.0,1,1,0
10090,'10',1,14,2,9.7,2.668,0.0,0.0,0.0,0.0,1,1,0
10090,'20',1,14,2,9.7,2.668,0.0,0.0,0.0,0.0,1,1,0
10091,'10',1,14,2,19.4,5.335,0.0,0.0,0.0,0.0,1,1,0
10091,'20',1,14,2,19.4,5.335,0.0,0.0,0.0,0.0,1,1,0
10092,'10',1,14,2,9.2,2.53,0.0,0.0,0.0,0.0,1,1,0
10092,'20',1,14,2,9.2,2.53,0.0,0.0,0.0,0.0,1,1,0
10093,'1A',1,14,2,18.88,5.192,0.0,0.0,0.0,0.0,1,1,0
10094,'1A',1,14,2,6.04,1.661,0.0,0.0,0.0,0.0,1,1,0
10095,'1A',1,14,2,4.23,1.163,0.0,0.0,0.0,0.0,1,1,0
10097,'1A',1,14,2,50.78,13.964,0.0,0.0,0.0,0.0,1,1,0
10098,'10',1,14,2,8.4,2.31,0.0,0.0,0.0,0.0,1,1,0
10098,'20',1,14,2,8.4,2.31,0.0,0.0,0.0,0.0,1,1,0
10099,'10',1,14,2,13.6,3.74,0.0,0.0,0.0,0.0,1,1,0
10099,'20',1,14,2,13.6,3.74,0.0,0.0,0.0,0.0,1,1,0
10100,'10',1,14,2,12.0,3.3,0.0,0.0,0.0,0.0,1,1,0
10100,'20',1,14,2,12.0,3.3,0.0,0.0,0.0,0.0,1,1,0
10101,'10',1,14,2,6.9,1.897,0.0,0.0,0.0,0.0,1,1,0
10101,'20',1,14,2,6.9,1.897,0.0,0.0,0.0,0.0,1,1,0
10102,'1A',1,14,2,8.81,2.423,0.0,0.0,0.0,0.0,1,1,0
10103,'10',1,14,2,3.6,0.99,0.0,0.0,0.0,0.0,1,1,0
10103,'20',1,14,2,3.6,0.99,0.0,0.0,0.0,0.0,1,1,0
10104,'1A',1,14,2,8.61,2.368,0.0,0.0,0.0,0.0,1,1,0
10105,'10',1,14,2,6.4,1.76,0.0,0.0,0.0,0.0,1,1,0
10105,'20',1,14,2,6.4,1.76,0.0,0.0,0.0,0.0,1,1,0
10107,'10',1,14,2,10.6,2.915,0.0,0.0,0.0,0.0,1,1,0
10107,'20',1,14,2,10.6,2.915,0.0,0.0,0.0,0.0,1,1,0
10109,'10',1,14,2,9.5,2.612,0.0,0.0,0.0,0.0,1,1,0
10109,'20',1,14,2,9.5,2.612,0.0,0.0,0.0,0.0,1,1,0
10110,'1A',1,14,2,16.53,4.546,0.0,0.0,0.0,0.0,1,1,0
10111,'10',1,14,2,13.0,3.575,0.0,0.0,0.0,0.0,1,1,0
10111,'20',1,14,2,13.0,3.575,0.0,0.0,0.0,0.0,1,1,0
10112,'10',1,14,2,2.4,0.66,0.0,0.0,0.0,0.0,1,1,0
10112,'20',1,14,2,2.4,0.66,0.0,0.0,0.0,0.0,1,1,0
10113,'1A',1,14,2,0.9,0.247,0.0,0.0,0.0,0.0,1,1,0
10114,'10',1,14,2,9.5,2.612,0.0,0.0,0.0,0.0,1,1,0
10114,'20',1,14,2,9.5,2.612,0.0,0.0,0.0,0.0,1,1,0
10115,'10',1,14,2,10.6,2.915,0.0,0.0,0.0,0.0,1,1,0
10115,'20',1,14,2,10.6,2.915,0.0,0.0,0.0,0.0,1,1,0
10116,'1A',1,14,2,1.62,0.446,0.0,0.0,0.0,0.0,1,1,0
10117,'1A',1,14,2,12.69,3.49,0.0,0.0,0.0,0.0,1,1,0
10118,'10',1,14,2,10.4,2.86,0.0,0.0,0.0,0.0,1,1,0
10118,'20',1,14,2,10.4,2.86,0.0,0.0,0.0,0.0,1,1,0
10119,'1A',1,14,2,3.27,0.899,0.0,0.0,0.0,0.0,1,1,0
10120,'10',1,14,2,7.4,2.035,0.0,0.0,0.0,0.0,1,1,0
10120,'20',1,14,2,7.4,2.035,0.0,0.0,0.0,0.0,1,1,0
10121,'10',1,14,2,13.38,3.68,0.0,0.0,0.0,0.0,1,1,0
10121,'20',1,14,2,13.38,3.68,0.0,0.0,0.0,0.0,1,1,0
10122,'10',1,14,2,13.3,3.658,0.0,0.0,0.0,0.0,1,1,0
10122,'20',1,14,2,13.3,3.658,0.0,0.0,0.0,0.0,1,1,0
10123,'1A',1,14,2,5.74,1.578,0.0,0.0,0.0,0.0,1,1,0
10124,'10',1,14,2,2.4,0.66,0.0,0.0,0.0,0.0,1,1,0
10124,'20',1,14,2,2.4,0.66,0.0,0.0,0.0,0.0,1,1,0
10125,'1A',1,14,2,9.56,2.629,0.0,0.0,0.0,0.0,1,1,0
10126,'10',1,14,2,9.8,2.695,0.0,0.0,0.0,0.0,1,1,0
10126,'20',1,14,2,9.8,2.695,0.0,0.0,0.0,0.0,1,1,0
10128,'10',1,14,2,19.67,5.409,0.0,0.0,0.0,0.0,1,1,0
10128,'1A',1,14,2,43.87,12.064,0.0,0.0,0.0,0.0,1,1,0
10129,'10',1,14,2,9.5,2.612,0.0,0.0,0.0,0.0,1,1,0
10129,'20',1,14,2,9.5,2.612,0.0,0.0,0.0,0.0,1,1,0
10130,'1A',1,14,2,5.49,1.51,0.0,0.0,0.0,0.0,1,1,0
10131,'1A',1,14,2,1.95,0.536,0.0,0.0,0.0,0.0,1,1,0
10132,'10',1,14,2,3.55,0.976,0.0,0.0,0.0,0.0,1,1,0
10132,'20',1,14,2,3.55,0.976,0.0,0.0,0.0,0.0,1,1,0
10133,'10',1,14,2,7.5,2.063,0.0,0.0,0.0,0.0,1,1,0
10133,'20',1,14,2,7.5,2.063,0.0,0.0,0.0,0.0,1,1,0
10134,'10',1,14,2,5.0,1.375,0.0,0.0,0.0,0.0,1,1,0
10134,'20',1,14,2,5.0,1.375,0.0,0.0,0.0,0.0,1,1,0
...
0 / END OF LOAD DATA BEGIN FIXED SHUNT DATA
0 / END OF FIXED SHUNT DATA BEGIN GENERATOR DATA
2615,'G3',187.977,65.8,65.8,0.0,1.05,0,100.0,0.0,1.0,0.0,0.0,1.0,1,100.0,188.0,1.0,1,1.0,0,1.0,0,1.0,0,1.0,0,1.0
2616,'G2',169.979,59.5,59.5,0.0,1.05,0,100.0,0.0,1.0,0.0,0.0,1.0,1,100.0,170.0,1.0,1,1.0,0,1.0,0,1.0,0,1.0,0,1.0
2617,'G1',169.979,59.5,59.5,0.0,1.05,0,100.0,0.0,1.0,0.0,0.0,1.0,1,100.0,170.0,1.0,1,1.0,0,1.0,0,1.0,0,1.0,0,1.0
2621,'U1',8.478,11.45,11.45,-6.15,1.05,0,100.0,0.0,1.0,0.0,0.0,1.0,1,100.0,18.5,8.0,1,1.0,0,1.0,0,1.0,0,1.0,0,1.0
2621,'U2',8.478,11.45,11.45,-6.15,1.05,0,100.0,0.0,1.0,0.0,0.0,1.0,1,100.0,18.5,8.0,1,1.0,0,1.0,0,1.0,0,1.0,0,1.0
2934,'U1',83.99,27.6,27.6,-27.6,1.05,0,100.0,0.0,1.0,0.0,0.0,1.0,1,100.0,84.0,40.0,1,1.0,0,1.0,0,1.0,0,1.0,0,1.0
2937,'U1',39.995,24.8,24.8,-13.3,1.05,0,100.0,0.0,1.0,0.0,0.0,1.0,1,100.0,40.0,15.0,1,1.0,0,1.0,0,1.0,0,1.0,0,1.0
2937,'U2',55.993,34.7,34.7,-18.7,1.05,0,100.0,0.0,1.0,0.0,0.0,1.0,1,100.0,56.0,16.0,1,1.0,0,1.0,0,1.0,0,1.0,0,1.0
2938,'U1',54.493,13.275,33.8,-18.2,1.05,0,100.0,0.0,1.0,0.0,0.0,1.0,1,100.0,54.5,38.0,1,1.0,0,1.0,0,1.0,0,1.0,0,1.0
2938,'U2',54.493,13.275,33.8,-18.2,1.05,0,100.0,0.0,1.0,0.0,0.0,1.0,1,100.0,54.5,38.0,1,1.0,0,1.0,0,1.0,0,1.0,0,1.0
2938,'U3',54.493,13.275,33.8,-18.2,1.05,0,100.0,0.0,1.0,0.0,0.0,1.0,1,100.0,54.5,38.0,1,1.0,0,1.0,0,1.0,0,1.0,0,1.0
2940,'U1',9.646,9.598,12.1,-8.3,1.05,0,100.0,0.0,1.0,0.0,0.0,1.0,1,100.0,25.0,9.0,1,1.0,0,1.0,0,1.0,0,1.0,0,1.0
2940,'U2',9.646,9.598,12.1,-8.3,1.05,0,100.0,0.0,1.0,0.0,0.0,1.0,1,100.0,25.0,9.0,1,1.0,0,1.0,0,1.0,0,1.0,0,1.0
2940,'U3',8.775,9.598,14.5,-10.0,1.05,0,100.0,0.0,1.0,0.0,0.0,1.0,1,100.0,30.0,8.0,1,1.0,0,1.0,0,1.0,0,1.0,0,1.0
2943,'G2',210.333,89.229,179.1,-96.3,1.05,0,100.0,0.0,1.0,0.0,0.0,1.0,1,100.0,289.0,150.0,1,1.0,0,1.0,0,1.0,0,1.0,0,1.0
2946,'G1',210.333,89.229,179.1,-96.3,1.05,0,100.0,0.0,1.0,0.0,0.0,1.0,1,100.0,289.0,150.0,1,1.0,0,1.0,0,1.0,0,1.0,0,1.0
2947,'G2',210.333,79.766,179.1,-96.3,1.05,0,100.0,0.0,1.0,0.0,0.0,1.0,1,100.0,289.0,150.0,1,1.0,0,1.0,0,1.0,0,1.0,0,1.0
2948,'G1',210.333,79.766,179.1,-96.3,1.05,0,100.0,0.0,1.0,0.0,0.0,1.0,1,100.0,289.0,150.0,1,1.0,0,1.0,0,1.0,0,1.0,0,1.0
2951,'10',2.23,0.6,0.6,-0.6,1.05,0,100.0,0.0,1.0,0.0,0.0,1.0,1,100.0,2.23,0.87,1,1.0,0,1.0,0,1.0,0,1.0,0,1.0
2951,'11',2.23,0.6,0.6,-0.6,1.05,0,100.0,0.0,1.0,0.0,0.0,1.0,1,100.0,2.23,0.87,1,1.0,0,1.0,0,1.0,0,1.0,0,1.0
2951,'12',2.23,0.6,0.6,-0.6,1.05,0,100.0,0.0,1.0,0.0,0.0,1.0,1,100.0,2.23,0.87,1,1.0,0,1.0,0,1.0,0,1.0,0,1.0
2951,'13',2.23,0.6,0.6,-0.6,1.05,0,100.0,0.0,1.0,0.0,0.0,1.0,1,100.0,2.23,0.87,1,1.0,0,1.0,0,1.0,0,1.0,0,1.0
2951,'U1',2.23,0.6,0.6,-0.6,1.05,0,100.0,0.0,1.0,0.0,0.0,1.0,1,100.0,2.23,0.87,1,1.0,0,1.0,0,1.0,0,1.0,0,1.0
2951,'U2',2.23,0.6,0.6,-0.6,1.05,0,100.0,0.0,1.0,0.0,0.0,1.0,1,100.0,2.23,0.87,1,1.0,0,1.0,0,1.0,0,1.0,0,1.0
2951,'U3',2.23,0.6,0.6,-0.6,1.05,0,100.0,0.0,1.0,0.0,0.0,1.0,1,100.0,2.23,0.87,1,1.0,0,1.0,0,1.0,0,1.0,0,1.0
2951,'U4',2.23,0.6,0.6,-0.6,1.05,0,100.0,0.0,1.0,0.0,0.0,1.0,1,100.0,2.23,0.87,1,1.0,0,1.0,0,1.0,0,1.0,0,1.0
2951,'U5',2.23,0.6,0.6,-0.6,1.05,0,100.0,0.0,1.0,0.0,0.0,1.0,1,100.0,2.23,0.87,1,1.0,0,1.0,0,1.0,0,1.0,0,1.0
2951,'U6',2.23,0.6,0.6,-0.6,1.05,0,100.0,0.0,1.0,0.0,0.0,1.0,1,100.0,2.23,0.87,1,1.0,0,1.0,0,1.0,0,1.0,0,1.0
2951,'U7',2.23,0.6,0.6,-0.6,1.05,0,100.0,0.0,1.0,0.0,0.0,1.0,1,100.0,2.23,0.87,1,1.0,0,1.0,0,1.0,0,1.0,0,1.0
2951,'U8',2.23,0.6,0.6,-0.6,1.05,0,100.0,0.0,1.0,0.0,0.0,1.0,1,100.0,2.23,0.87,1,1.0,0,1.0,0,1.0,0,1.0,0,1.0
2951,'U9',2.23,0.6,0.6,-0.6,1.05,0,100.0,0.0,1.0,0.0,0.0,1.0,1,100.0,2.23,0.87,1,1.0,0,1.0,0,1.0,0,1.0,0,1.0
2953,'G1',235.869,138.595,259.4,-178.5,1.05,0,100.0,0.0,1.0,0.0,0.0,1.0,1,100.0,535.5,150.0,1,1.0,0,1.0,0,1.0,0,1.0,0,1.0
2954,'G2',121.281,135.853,256.5,-114.0,1.05,0,100.0,0.0,1.0,0.0,0.0,1.0,1,100.0,342.0,90.0,1,1.0,0,1.0,0,1.0,0,1.0,0,1.0
2957,'G1',169.979,56.887,105.4,-56.7,1.05,0,100.0,0.0,1.0,0.0,0.0,1.0,1,100.0,170.0,100.0,1,1.0,0,1.0,0,1.0,0,1.0,0,1.0
2957,'G2',169.979,56.887,105.4,-56.7,1.05,0,100.0,0.0,1.0,0.0,0.0,1.0,1,100.0,170.0,100.0,1,1.0,0,1.0,0,1.0,0,1.0,0,1.0
2957,'G3',205.176,56.887,158.0,-85.0,1.05,0,100.0,0.0,1.0,0.0,0.0,1.0,1,100.0,255.0,120.0,1,1.0,0,1.0,0,1.0,0,1.0,0,1.0
2960,'18',41.895,20.3,20.3,-14.0,1.05,0,100.0,0.0,1.0,0.0,0.0,1.0,1,100.0,41.9,18.6,1,1.0,0,1.0,0,1.0,0,1.0,0,1.0
2961,'23',17.515,14.7,14.7,-7.9,1.05,0,100.0,0.0,1.0,0.0,0.0,1.0,1,100.0,23.8,16.9,1,1.0,0,1.0,0,1.0,0,1.0,0,1.0
2962,'22',17.615,14.7,14.7,-7.9,1.05,0,100.0,0.0,1.0,0.0,0.0,1.0,1,100.0,23.8,17.0,1,1.0,0,1.0,0,1.0,0,1.0,0,1.0
2963,'21',17.915,14.7,14.7,-7.9,1.05,0,100.0,0.0,1.0,0.0,0.0,1.0,1,100.0,23.8,17.3,1,1.0,0,1.0,0,1.0,0,1.0,0,1.0
2964,'20',18.215,14.7,14.7,-7.9,1.05,0,100.0,0.0,1.0,0.0,0.0,1.0,1,100.0,23.8,17.6,1,1.0,0,1.0,0,1.0,0,1.0,0,1.0
2965,'19',41.895,20.3,20.3,-14.0,1.05,0,100.0,0.0,1.0,0.0,0.0,1.0,1,100.0,41.9,18.6,1,1.0,0,1.0,0,1.0,0,1.0,0,1.0
2966,'17',41.895,20.3,20.3,-14.0,1.05,0,100.0,0.0,1.0,0.0,0.0,1.0,1,100.0,41.9,18.6,1,1.0,0,1.0,0,1.0,0,1.0,0,1.0
2967,'16',41.895,20.3,20.3,-14.0,1.05,0,100.0,0.0,1.0,0.0,0.0,1.0,1,100.0,41.9,18.6,1,1.0,0,1.0,0,1.0,0,1.0,0,1.0
2968,'15',41.895,20.3,20.3,-14.0,1.05,0,100.0,0.0,1.0,0.0,0.0,1.0,1,100.0,41.9,18.6,1,1.0,0,1.0,0,1.0,0,1.0,0,1.0
2969,'14',41.895,20.3,20.3,-14.0,1.05,0,100.0,0.0,1.0,0.0,0.0,1.0,1,100.0,41.9,18.6,1,1.0,0,1.0,0,1.0,0,1.0,0,1.0
2970,'13',41.895,20.3,20.3,-14.0,1.05,0,100.0,0.0,1.0,0.0,0.0,1.0,1,100.0,41.9,18.6,1,1.0,0,1.0,0,1.0,0,1.0,0,1.0
2971,'G8',41.895,20.3,20.3,-14.0,1.05,0,100.0,0.0,1.0,0.0,0.0,1.0,1,100.0,41.9,18.6,1,1.0,0,1.0,0,1.0,0,1.0,0,1.0
2972,'G7',15.632,12.76,12.76,-6.86,1.05,0,100.0,0.0,1.0,0.0,0.0,1.0,1,100.0,20.59,15.1,1,1.0,0,1.0,0,1.0,0,1.0,0,1.0
2973,'G6',15.632,12.76,12.76,-6.86,1.05,0,100.0,0.0,1.0,0.0,0.0,1.0,1,100.0,20.59,15.1,1,1.0,0,1.0,0,1.0,0,1.0,0,1.0
2974,'G5',15.632,12.76,12.76,-6.86,1.05,0,100.0,0.0,1.0,0.0,0.0,1.0,1,100.0,20.59,15.1,1,1.0,0,1.0,0,1.0,0,1.0,0,1.0
2975,'G4',15.632,12.76,12.76,-6.86,1.05,0,100.0,0.0,1.0,0.0,0.0,1.0,1,100.0,20.59,15.1,1,1.0,0,1.0,0,1.0,0,1.0,0,1.0
2976,'G3',15.632,12.76,12.76,-6.86,1.05,0,100.0,0.0,1.0,0.0,0.0,1.0,1,100.0,20.59,15.1,1,1.0,0,1.0,0,1.0,0,1.0,0,1.0
2977,'G1',15.632,12.76,12.76,-6.86,1.05,0,100.0,0.0,1.0,0.0,0.0,1.0,1,100.0,20.59,15.1,1,1.0,0,1.0,0,1.0,0,1.0,0,1.0
2978,'10',41.895,20.3,20.3,-14.0,1.05,0,100.0,0.0,1.0,0.0,0.0,1.0,1,100.0,41.9,18.6,1,1.0,0,1.0,0,1.0,0,1.0,0,1.0
2979,'11',41.895,20.3,20.3,-14.0,1.05,0,100.0,0.0,1.0,0.0,0.0,1.0,1,100.0,41.9,18.6,1,1.0,0,1.0,0,1.0,0,1.0,0,1.0
2982,'12',41.895,20.3,20.3,-14.0,1.05,0,100.0,0.0,1.0,0.0,0.0,1.0,1,100.0,41.9,18.6,1,1.0,0,1.0,0,1.0,0,1.0,0,1.0
2983,'G9',41.895,20.3,20.3,-14.0,1.05,0,100.0,0.0,1.0,0.0,0.0,1.0,1,100.0,41.9,18.6,1,1.0,0,1.0,0,1.0,0,1.0,0,1.0
2985,'G2',15.632,12.76,12.76,-6.86,1.05,0,100.0,0.0,1.0,0.0,0.0,1.0,1,100.0,20.59,15.1,1,1.0,0,1.0,0,1.0,0,1.0,0,1.0
2986,'G3',143.737,135.45,135.45,0.0,1.05,0,100.0,0.0,1.0,0.0,0.0,1.0,1,100.0,387.0,75.0,1,1.0,0,1.0,0,1.0,0,1.0,0,1.0
2987,'G1',64.653,63.0,63.0,0.0,1.05,0,100.0,0.0,1.0,0.0,0.0,1.0,1,100.0,180.0,60.0,1,1.0,0,1.0,0,1.0,0,1.0,0,1.0
2990,'G2',111.257,131.6,131.6,0.0,1.05,0,100.0,0.0,1.0,0.0,0.0,1.0,1,100.0,376.0,75.0,1,1.0,0,1.0,0,1.0,0,1.0,0,1.0
2992,'G4',120.718,135.45,135.45,0.0,1.05,0,100.0,0.0,1.0,0.0,0.0,1.0,1,100.0,387.0,75.0,1,1.0,0,1.0,0,1.0,0,1.0,0,1.0
2994,'G6',210.987,20.877,185.9,-100.0,1.05,0,100.0,0.0,1.0,0.0,0.0,1.0,1,100.0,300.0,194.0,1,1.0,0,1.0,0,1.0,0,1.0,0,1.0
2995,'G4',210.987,20.877,185.9,-100.0,1.05,0,100.0,0.0,1.0,0.0,0.0,1.0,1,100.0,300.0,194.0,1,1.0,0,1.0,0,1.0,0,1.0,0,1.0
2996,'G3',140.982,19.267,87.4,-47.0,1.05,0,100.0,0.0,1.0,0.0,0.0,1.0,1,100.0,141.0,90.0,1,1.0,0,1.0,0,1.0,0,1.0,0,1.0
2997,'G2',140.982,19.267,87.4,-47.0,1.05,0,100.0,0.0,1.0,0.0,0.0,1.0,1,100.0,141.0,90.0,1,1.0,0,1.0,0,1.0,0,1.0,0,1.0
2998,'G1',140.982,19.267,87.4,-47.0,1.05,0,100.0,0.0,1.0,0.0,0.0,1.0,1,100.0,141.0,90.0,1,1.0,0,1.0,0,1.0,0,1.0,0,1.0
3001,'G5',210.987,20.877,185.9,-100.0,1.05,0,100.0,0.0,1.0,0.0,0.0,1.0,1,100.0,300.0,194.0,1,1.0,0,1.0,0,1.0,0,1.0,0,1.0
3003,'U1',66.192,32.1,32.1,-22.1,1.05,0,100.0,0.0,1.0,0.0,0.0,1.0,1,100.0,66.2,48.8,1,1.0,0,1.0,0,1.0,0,1.0,0,1.0
3003,'U2',47.694,23.1,23.1,-15.9,1.05,0,100.0,0.0,1.0,0.0,0.0,1.0,1,100.0,47.7,34.3,1,1.0,0,1.0,0,1.0,0,1.0,0,1.0
3006,'G2',299.963,36.528,145.3,-100.0,1.05,0,100.0,0.0,1.0,0.0,0.0,1.0,1,100.0,300.0,220.0,1,1.0,0,1.0,0,1.0,0,1.0,0,1.0
3007,'G1',299.963,36.528,145.3,-100.0,1.05,0,100.0,0.0,1.0,0.0,0.0,1.0,1,100.0,300.0,220.0,1,1.0,0,1.0,0,1.0,0,1.0,0,1.0
3010,'G1',128.684,32.3,32.3,-32.3,1.05,0,100.0,0.0,1.0,0.0,0.0,1.0,1,100.0,128.7,85.0,1,1.0,0,1.0,0,1.0,0,1.0,0,1.0
3010,'G2',128.684,32.3,32.3,-32.3,1.05,0,100.0,0.0,1.0,0.0,0.0,1.0,1,100.0,128.7,85.0,1,1.0,0,1.0,0,1.0,0,1.0,0,1.0
3010,'G3',128.684,32.3,32.3,-32.3,1.05,0,100.0,0.0,1.0,0.0,0.0,1.0,1,100.0,128.7,30.0,1,1.0,0,1.0,0,1.0,0,1.0,0,1.0
3013,'U1',13.598,10.2,10.2,-4.53,1.05,0,100.0,0.0,1.0,0.0,0.0,1.0,1,100.0,13.6,4.0,1,1.0,0,1.0,0,1.0,0,1.0,0,1.0
3013,'U2',13.598,10.2,10.2,-4.53,1.05,0,100.0,0.0,1.0,0.0,0.0,1.0,1,100.0,13.6,4.0,1,1.0,0,1.0,0,1.0,0,1.0,0,1.0
3013,'U3',13.598,10.2,10.2,-4.53,1.05,0,100.0,0.0,1.0,0.0,0.0,1.0,1,100.0,13.6,4.0,1,1.0,0,1.0,0,1.0,0,1.0,0,1.0
3015,'U1',8.999,6.75,6.75,-3.0,1.05,0,100.0,0.0,1.0,0.0,0.0,1.0,1,100.0,9.0,3.0,1,1.0,0,1.0,0,1.0,0,1.0,0,1.0
3015,'U2',8.999,6.75,6.75,-3.0,1.05,0,100.0,0.0,1.0,0.0,0.0,1.0,1,100.0,9.0,3.0,1,1.0,0,1.0,0,1.0,0,1.0,0,1.0
3015,'U3',8.999,6.75,6.75,-3.0,1.05,0,100.0,0.0,1.0,0.0,0.0,1.0,1,100.0,9.0,3.0,1,1.0,0,1.0,0,1.0,0,1.0,0,1.0
3015,'U4',8.999,6.75,6.75,-3.0,1.05,0,100.0,0.0,1.0,0.0,0.0,1.0,1,100.0,9.0,3.0,1,1.0,0,1.0,0,1.0,0,1.0,0,1.0
3018,'U1',199.933,67.884,216.8,-96.3,1.05,0,100.0,0.0,1.0,0.0,0.0,1.0,1,100.0,289.0,155.0,1,1.0,0,1.0,0,1.0,0,1.0,0,1.0
3021,'G6',33.696,20.9,20.9,-11.2,1.05,0,100.0,0.0,1.0,0.0,0.0,1.0,1,100.0,33.7,15.0,1,1.0,0,1.0,0,1.0,0,1.0,0,1.0
3022,'G5',33.696,20.9,20.9,-11.2,1.05,0,100.0,0.0,1.0,0.0,0.0,1.0,1,100.0,33.7,15.0,1,1.0,0,1.0,0,1.0,0,1.0,0,1.0
3023,'G4',59.993,37.2,37.2,-20.0,1.05,0,100.0,0.0,1.0,0.0,0.0,1.0,1,100.0,60.0,35.0,1,1.0,0,1.0,0,1.0,0,1.0,0,1.0
3024,'G3',59.993,37.2,37.2,-20.0,1.05,0,100.0,0.0,1.0,0.0,0.0,1.0,1,100.0,60.0,35.0,1,1.0,0,1.0,0,1.0,0,1.0,0,1.0
3025,'G2',89.789,56.7,56.7,-29.95,1.05,0,100.0,0.0,1.0,0.0,0.0,1.0,1,100.0,89.8,37.5,1,1.0,0,1.0,0,1.0,0,1.0,0,1.0
3026,'G1',89.789,56.7,56.7,-29.95,1.05,0,100.0,0.0,1.0,0.0,0.0,1.0,1,100.0,89.8,37.5,1,1.0,0,1.0,0,1.0,0,1.0,0,1.0
3028,'G7',35.996,22.3,22.3,-12.0,1.05,0,100.0,0.0,1.0,0.0,0.0,1.0,1,100.0,36.0,5.0,1,1.0,0,1.0,0,1.0,0,1.0,0,1.0
3030,'G4',249.969,99.63,100.0,-50.0,1.05,0,100.0,0.0,1.0,0.0,0.0,1.0,1,100.0,250.0,1.0,1,1.0,0,1.0,0,1.0,0,1.0,0,1.0
3031,'G3',249.969,99.63,100.0,-50.0,1.05,0,100.0,0.0,1.0,0.0,0.0,1.0,1,100.0,250.0,1.0,1,1.0,0,1.0,0,1.0,0,1.0,0,1.0
3032,'G2',249.969,99.63,100.0,-50.0,1.05,0,100.0,0.0,1.0,0.0,0.0,1.0,1,100.0,250.0,1.0,1,1.0,0,1.0,0,1.0,0,1.0,0,1.0
3033,'G1',249.969,99.63,100.0,-50.0,1.05,0,100.0,0.0,1.0,0.0,0.0,1.0,1,100.0,250.0,1.0,1,1.0,0,1.0,0,1.0,0,1.0,0,1.0
3036,'G2',198.369,250.124,300.8,-207.0,1.05,0,100.0,0.0,1.0,0.0,0.0,1.0,1,100.0,621.0,80.0,1,1.0,0,1.0,0,1.0,0,1.0,0,1.0
3037,'G1',214.369,250.617,300.8,-207.0,1.05,0,100.0,0.0,1.0,0.0,0.0,1.0,1,100.0,621.0,100.0,1,1.0,0,1.0,0,1.0,0,1.0,0,1.0
3041,'G3',174.447,81.504,116.7,-80.3,1.05,0,100.0,0.0,1.0,0.0,0.0,1.0,1,100.0,241.0,100.0,1,1.0,0,1.0,0,1.0,0,1.0,0,1.0
3042,'G2',174.447,81.504,116.7,-80.3,1.05,0,100.0,0.0,1.0,0.0,0.0,1.0,1,100.0,241.0,100.0,1,1.0,0,1.0,0,1.0,0,1.0,0,1.0
3043,'G1',62.291,80.269,230.3,-158.5,1.05,0,100.0,0.0,1.0,0.0,0.0,1.0,1,100.0,475.5,50.0,1,1.0,0,1.0,0,1.0,0,1.0,0,1.0
3044,'G4',366.61,89.715,211.2,-211.2,1.05,0,100.0,0.0,1.0,0.0,0.0,1.0,1,100.0,642.6,350.0,1,1.0,0,1.0,0,1.0,0,1.0,0,1.0
3049,'G3',169.979,81.738,105.4,-56.7,1.05,0,100.0,0.0,1.0,0.0,0.0,1.0,1,100.0,170.0,90.1,1,1.0,0,1.0,0,1.0,0,1.0,0,1.0
3050,'G2',169.979,81.738,105.4,-56.7,1.05,0,100.0,0.0,1.0,0.0,0.0,1.0,1,100.0,170.0,90.1,1,1.0,0,1.0,0,1.0,0,1.0,0,1.0
3051,'G1',179.978,81.972,111.6,-60.0,1.05,0,100.0,0.0,1.0,0.0,0.0,1.0,1,100.0,180.0,95.4,1,1.0,0,1.0,0,1.0,0,1.0,0,1.0
3055,'G2',62.893,80.629,101.0,-54.3,1.05,0,100.0,0.0,1.0,0.0,0.0,1.0,1,100.0,163.0,58.68,1,1.0,0,1.0,0,1.0,0,1.0,0,1.0
3056,'G1',190.55,82.315,247.9,-133.3,1.05,0,100.0,0.0,1.0,0.0,0.0,1.0,1,100.0,400.0,130.0,1,1.0,0,1.0,0,1.0,0,1.0,0,1.0
3060,'U1',39.995,14.0,14.0,0.0,1.05,0,100.0,0.0,1.0,0.0,0.0,1.0,1,100.0,40.0,35.0,1,1.0,0,1.0,0,1.0,0,1.0,0,1.0
3060,'U2',39.995,14.0,14.0,0.0,1.05,0,100.0,0.0,1.0,0.0,0.0,1.0,1,100.0,40.0,35.0,1,1.0,0,1.0,0,1.0,0,1.0,0,1.0
3060,'U3',120.985,42.35,42.35,0.0,1.05,0,100.0,0.0,1.0,0.0,0.0,1.0,1,100.0,121.0,90.0,1,1.0,0,1.0,0,1.0,0,1.0,0,1.0
3060,'U4',120.985,42.35,42.35,0.0,1.05,0,100.0,0.0,1.0,0.0,0.0,1.0,1,100.0,121.0,90.0,1,1.0,0,1.0,0,1.0,0,1.0,0,1.0
3063,'U1',11.861,24.152,44.6,-24.0,1.05,0,100.0,0.0,1.0,0.0,0.0,1.0,1,100.0,72.0,10.0,1,1.0,0,1.0,0,1.0,0,1.0,0,1.0
3063,'U2',114.828,24.152,115.8,-62.3,1.05,0,100.0,0.0,1.0,0.0,0.0,1.0,1,100.0,186.8,110.0,1,1.0,0,1.0,0,1.0,0,1.0,0,1.0
3065,'NJ',50.0,-17.78,9900.0,-9900.0,1.02,0,100.0,0.0,1.0,0.0,0.0,1.0,1,100.0,1000.0,0.0,1,1.0,0,1.0,0,1.0,0,1.0,0,1.0
3066,'U1',10.299,7.209,7.73,-3.43,1.05,0,100.0,0.0,1.0,0.0,0.0,1.0,1,100.0,10.3,8.0,1,1.0,0,1.0,0,1.0,0,1.0,0,1.0
3066,'U2',10.299,7.209,7.73,-3.43,1.05,0,100.0,0.0,1.0,0.0,0.0,1.0,1,100.0,10.3,8.0,1,1.0,0,1.0,0,1.0,0,1.0,0,1.0
3066,'U3',10.299,7.209,7.73,-3.43,1.05,0,100.0,0.0,1.0,0.0,0.0,1.0,1,100.0,10.3,8.0,1,1.0,0,1.0,0,1.0,0,1.0,0,1.0
3066,'U4',10.299,7.209,7.73,-3.43,1.05,0,100.0,0.0,1.0,0.0,0.0,1.0,1,100.0,10.3,8.0,1,1.0,0,1.0,0,1.0,0,1.0,0,1.0
3066,'U5',10.299,7.209,7.73,-3.43,1.05,0,100.0,0.0,1.0,0.0,0.0,1.0,1,100.0,10.3,8.0,1,1.0,0,1.0,0,1.0,0,1.0,0,1.0
3066,'U6',10.299,7.209,7.73,-3.43,1.05,0,100.0,0.0,1.0,0.0,0.0,1.0,1,100.0,10.3,8.0,1,1.0,0,1.0,0,1.0,0,1.0,0,1.0
3069,'U1',152.681,50.2,50.2,-50.2,1.05,0,100.0,0.0,1.0,0.0,0.0,1.0,1,100.0,152.7,80.0,1,1.0,0,1.0,0,1.0,0,1.0,0,1.0
3069,'U2',196.176,53.474,64.5,-64.5,1.05,0,100.0,0.0,1.0,0.0,0.0,1.0,1,100.0,196.2,125.0,1,1.0,0,1.0,0,1.0,0,1.0,0,1.0
3072,'G2',215.121,116.28,240.3,-240.3,1.05,0,100.0,0.0,1.0,0.0,0.0,1.0,1,100.0,585.0,200.0,1,1.0,0,1.0,0,1.0,0,1.0,0,1.0
3073,'G1',184.992,115.404,190.6,-190.6,1.05,0,100.0,0.0,1.0,0.0,0.0,1.0,1,100.0,580.0,170.0,1,1.0,0,1.0,0,1.0,0,1.0,0,1.0
3076,'U1',44.095,12.013,21.4,-14.7,1.05,0,100.0,0.0,1.0,0.0,0.0,1.0,1,100.0,44.1,25.0,1,1.0,0,1.0,0,1.0,0,1.0,0,1.0
3076,'U2',34.096,12.013,16.5,-11.4,1.05,0,100.0,0.0,1.0,0.0,0.0,1.0,1,100.0,34.1,5.0,1,1.0,0,1.0,0,1.0,0,1.0,0,1.0
3078,'U1',24.997,12.1,12.1,-8.3,1.05,0,100.0,0.0,1.0,0.0,0.0,1.0,1,100.0,25.0,10.0,1,1.0,0,1.0,0,1.0,0,1.0,0,1.0
3078,'U2',48.794,28.968,30.2,-16.3,1.05,0,100.0,0.0,1.0,0.0,0.0,1.0,1,100.0,48.8,16.0,1,1.0,0,1.0,0,1.0,0,1.0,0,1.0
3078,'U3',48.794,28.968,30.2,-16.3,1.05,0,100.0,0.0,1.0,0.0,0.0,1.0,1,100.0,48.8,16.0,1,1.0,0,1.0,0,1.0,0,1.0,0,1.0
3080,'U1',46.994,22.8,22.8,-15.7,1.05,0,100.0,0.0,1.0,0.0,0.0,1.0,1,100.0,47.0,40.0,1,1.0,0,1.0,0,1.0,0,1.0,0,1.0
3080,'U2',24.997,12.1,12.1,-8.3,1.05,0,100.0,0.0,1.0,0.0,0.0,1.0,1,100.0,25.0,10.0,1,1.0,0,1.0,0,1.0,0,1.0,0,1.0
3082,'U1',158.218,66.502,94.3,-55.7,1.05,0,100.0,0.0,1.0,0.0,0.0,1.0,1,100.0,167.2,50.0,1,1.0,0,1.0,0,1.0,0,1.0,0,1.0
3082,'U2',155.281,66.502,96.2,-51.8,1.05,0,100.0,0.0,1.0,0.0,0.0,1.0,1,100.0,155.3,50.0,1,1.0,0,1.0,0,1.0,0,1.0,0,1.0
3084,'U1',65.492,31.7,31.7,-21.8,1.05,0,100.0,0.0,1.0,0.0,0.0,1.0,1,100.0,65.5,45.0,1,1.0,0,1.0,0,1.0,0,1.0,0,1.0
3084,'U2',37.195,18.0,18.0,-12.4,1.05,0,100.0,0.0,1.0,0.0,0.0,1.0,1,100.0,37.2,25.0,1,1.0,0,1.0,0,1.0,0,1.0,0,1.0
3086,'U1',14.198,6.9,6.9,-4.75,1.05,0,100.0,0.0,1.0,0.0,0.0,1.0,1,100.0,14.2,0.2,1,1.0,0,1.0,0,1.0,0,1.0,0,1.0
3086,'U2',14.198,6.9,6.9,-4.75,1.05,0,100.0,0.0,1.0,0.0,0.0,1.0,1,100.0,14.2,0.2,1,1.0,0,1.0,0,1.0,0,1.0,0,1.0
3089,'G1',23.824,108.282,309.05,0.0,1.05,0,100.0,0.0,1.0,0.0,0.0,1.0,1,100.0,883.0,1.0,1,1.0,0,1.0,0,1.0,0,1.0,0,1.0
3094,'U1',94.988,32.897,46.0,-31.7,1.05,0,100.0,0.0,1.0,0.0,0.0,1.0,1,100.0,95.0,70.0,1,1.0,0,1.0,0,1.0,0,1.0,0,1.0
3094,'U2',22.997,11.1,11.1,-7.7,1.05,0,100.0,0.0,1.0,0.0,0.0,1.0,1,100.0,23.0,3.0,1,1.0,0,1.0,0,1.0,0,1.0,0,1.0
3094,'U3',23.732,17.5,17.5,-9.4,1.05,0,100.0,0.0,1.0,0.0,0.0,1.0,1,100.0,28.3,23.0,1,1.0,0,1.0,0,1.0,0,1.0,0,1.0
3095,'U1',12.0,38.6,38.6,-38.6,1.05,0,100.0,0.0,1.0,0.0,0.0,1.0,1,100.0,12.0,0.0,1,1.0,0,1.0,0,1.0,0,1.0,1,1.0
3098,'U1',19.998,11.41,12.4,-6.7,1.05,0,100.0,0.0,1.0,0.0,0.0,1.0,1,100.0,20.0,19.6,1,1.0,0,1.0,0,1.0,0,1.0,0,1.0
3098,'U2',19.617,11.41,12.4,-6.7,1.05,0,100.0,0.0,1.0,0.0,0.0,1.0,1,100.0,20.0,19.1,1,1.0,0,1.0,0,1.0,0,1.0,0,1.0
3098,'U3',19.746,11.41,15.5,-8.3,1.05,0,100.0,0.0,1.0,0.0,0.0,1.0,1,100.0,25.0,19.1,1,1.0,0,1.0,0,1.0,0,1.0,0,1.0
3098,'U4',19.746,11.41,15.5,-8.3,1.05,0,100.0,0.0,1.0,0.0,0.0,1.0,1,100.0,25.0,19.1,1,1.0,0,1.0,0,1.0,0,1.0,0,1.0
3098,'U5',19.346,11.41,15.5,-8.3,1.05,0,100.0,0.0,1.0,0.0,0.0,1.0,1,100.0,25.0,18.7,1,1.0,0,1.0,0,1.0,0,1.0,0,1.0
3103,'U1',3.646,12.1,12.1,-8.3,1.05,0,100.0,0.0,1.0,0.0,0.0,1.0,1,100.0,25.0,3.0,1,1.0,0,1.0,0,1.0,0,1.0,0,1.0
3103,'U2',3.646,12.1,12.1,-8.3,1.05,0,100.0,0.0,1.0,0.0,0.0,1.0,1,100.0,25.0,3.0,1,1.0,0,1.0,0,1.0,0,1.0,0,1.0
3105,'U1',44.994,21.8,21.8,-15.0,1.05,0,100.0,0.0,1.0,0.0,0.0,1.0,1,100.0,45.0,22.0,1,1.0,0,1.0,0,1.0,0,1.0,0,1.0
3105,'U2',23.163,31.577,33.8,-15.0,1.05,0,100.0,0.0,1.0,0.0,0.0,1.0,1,100.0,45.0,22.0,1,1.0,0,1.0,0,1.0,0,1.0,0,1.0
3107,'G4',21.9,45.6,45.6,-24.5,1.05,0,100.0,0.0,1.0,0.0,0.0,1.0,1,100.0,73.5,20.0,1,1.0,0,1.0,0,1.0,0,1.0,0,1.0
3108,'G3',21.861,44.6,44.6,-24.0,1.05,0,100.0,0.0,1.0,0.0,0.0,1.0,1,100.0,72.0,20.0,1,1.0,0,1.0,0,1.0,0,1.0,0,1.0
3109,'G2',82.197,71.715,148.4,-79.8,1.05,0,100.0,0.0,1.0,0.0,0.0,1.0,1,100.0,239.4,60.0,1,1.0,0,1.0,0,1.0,0,1.0,0,1.0
3110,'G1',43.802,71.732,91.2,-49.0,1.05,0,100.0,0.0,1.0,0.0,0.0,1.0,1,100.0,147.1,40.0,1,1.0,0,1.0,0,1.0,0,1.0,0,1.0
3115,'U1',17.318,11.829,31.6,-17.0,1.05,0,100.0,0.0,1.0,0.0,0.0,1.0,1,100.0,51.0,16.0,1,1.0,0,1.0,0,1.0,0,1.0,0,1.0
3115,'U2',17.318,11.829,31.6,-17.0,1.05,0,100.0,0.0,1.0,0.0,0.0,1.0,1,100.0,51.0,16.0,1,1.0,0,1.0,0,1.0,0,1.0,0,1.0
3115,'U3',17.318,11.829,31.6,-17.0,1.05,0,100.0,0.0,1.0,0.0,0.0,1.0,1,100.0,51.0,16.0,1,1.0,0,1.0,0,1.0,0,1.0,0,1.0
3115,'U4',17.318,11.829,31.6,-17.0,1.05,0,100.0,0.0,1.0,0.0,0.0,1.0,1,100.0,51.0,16.0,1,1.0,0,1.0,0,1.0,0,1.0,0,1.0
3117,'U1',199.975,64.666,123.9,-66.7,1.05,0,100.0,0.0,1.0,0.0,0.0,1.0,1,100.0,200.0,108.0,1,1.0,0,1.0,0,1.0,0,1.0,0,1.0
3120,'PA',50.0,24.961,9900.0,-9900.0,1.02,0,100.0,0.0,1.0,0.0,0.0,1.0,1,100.0,100.0,0.0,1,1.0,0,1.0,0,1.0,0,1.0,0,1.0
3121,'U1',168.123,94.608,134.9,-72.5,1.05,0,100.0,0.0,1.0,0.0,0.0,1.0,1,100.0,217.6,85.0,1,1.0,0,1.0,0,1.0,0,1.0,0,1.0
3121,'U2',168.123,94.608,134.9,-72.5,1.05,0,100.0,0.0,1.0,0.0,0.0,1.0,1,100.0,217.6,85.0,1,1.0,0,1.0,0,1.0,0,1.0,0,1.0
3121,'U3',95.988,72.0,72.0,-32.0,1.05,0,100.0,0.0,1.0,0.0,0.0,1.0,1,100.0,96.0,35.0,1,1.0,0,1.0,0,1.0,0,1.0,0,1.0
3121,'U4',95.988,72.0,72.0,-32.0,1.05,0,100.0,0.0,1.0,0.0,0.0,1.0,1,100.0,96.0,35.0,1,1.0,0,1.0,0,1.0,0,1.0,0,1.0
3123,'10',19.16,9.826,15.32,-8.64,1.05,0,100.0,0.0,1.0,0.0,0.0,1.0,1,100.0,25.93,18.49,1,1.0,0,1.0,0,1.0,0,1.0,0,1.0
3123,'11',19.16,9.826,15.32,-8.64,1.05,0,100.0,0.0,1.0,0.0,0.0,1.0,1,100.0,25.93,18.49,1,1.0,0,1.0,0,1.0,0,1.0,0,1.0
3123,'12',19.16,9.826,15.32,-8.64,1.05,0,100.0,0.0,1.0,0.0,0.0,1.0,1,100.0,25.93,18.49,1,1.0,0,1.0,0,1.0,0,1.0,0,1.0
3123,'13',19.16,9.826,15.32,-8.64,1.05,0,100.0,0.0,1.0,0.0,0.0,1.0,1,100.0,25.93,18.49,1,1.0,0,1.0,0,1.0,0,1.0,0,1.0
3123,'14',19.16,9.826,15.32,-8.64,1.05,0,100.0,0.0,1.0,0.0,0.0,1.0,1,100.0,25.93,18.49,1,1.0,0,1.0,0,1.0,0,1.0,0,1.0
3123,'G1',52.679,9.826,116.5,-62.7,1.05,0,100.0,0.0,1.0,0.0,0.0,1.0,1,100.0,188.0,15.0,1,1.0,0,1.0,0,1.0,0,1.0,0,1.0
3123,'G2',52.679,9.826,116.5,-62.7,1.05,0,100.0,0.0,1.0,0.0,0.0,1.0,1,100.0,188.0,15.0,1,1.0,0,1.0,0,1.0,0,1.0,0,1.0
3123,'G3',19.16,9.826,15.32,-8.64,1.05,0,100.0,0.0,1.0,0.0,0.0,1.0,1,100.0,25.93,18.49,1,1.0,0,1.0,0,1.0,0,1.0,0,1.0
3123,'G4',19.16,9.826,15.32,-8.64,1.05,0,100.0,0.0,1.0,0.0,0.0,1.0,1,100.0,25.93,18.49,1,1.0,0,1.0,0,1.0,0,1.0,0,1.0
3123,'G5',19.16,9.826,15.32,-8.64,1.05,0,100.0,0.0,1.0,0.0,0.0,1.0,1,100.0,25.93,18.49,1,1.0,0,1.0,0,1.0,0,1.0,0,1.0
3123,'G6',19.16,9.826,15.32,-8.64,1.05,0,100.0,0.0,1.0,0.0,0.0,1.0,1,100.0,25.93,18.49,1,1.0,0,1.0,0,1.0,0,1.0,0,1.0
3123,'G7',19.16,9.826,15.32,-8.64,1.05,0,100.0,0.0,1.0,0.0,0.0,1.0,1,100.0,25.93,18.49,1,1.0,0,1.0,0,1.0,0,1.0,0,1.0
3123,'G8',19.16,9.826,15.32,-8.64,1.05,0,100.0,0.0,1.0,0.0,0.0,1.0,1,100.0,25.93,18.49,1,1.0,0,1.0,0,1.0,0,1.0,0,1.0
3123,'G9',19.16,9.826,15.32,-8.64,1.05,0,100.0,0.0,1.0,0.0,0.0,1.0,1,100.0,25.93,18.49,1,1.0,0,1.0,0,1.0,0,1.0,0,1.0
3126,'PA',50.0,162.636,9900.0,-9900.0,1.03,0,100.0,0.0,1.0,0.0,0.0,1.0,1,100.0,100.0,0.0,1,1.0,0,1.0,0,1.0,0,1.0,0,1.0
3130,'U1',70.17,35.077,150.0,-66.7,1.05,0,100.0,0.0,1.0,0.0,0.0,1.0,1,100.0,200.0,65.0,1,1.0,0,1.0,0,1.0,0,1.0,0,1.0
3130,'U2',49.037,35.077,117.2,-52.1,1.05,0,100.0,0.0,1.0,0.0,0.0,1.0,1,100.0,156.2,45.0,1,1.0,0,1.0,0,1.0,0,1.0,0,1.0
3130,'U3',114.653,35.077,111.6,-60.0,1.05,0,100.0,0.0,1.0,0.0,0.0,1.0,1,100.0,180.0,110.0,1,1.0,0,1.0,0,1.0,0,1.0,0,1.0
3130,'U4',114.653,35.077,111.6,-60.0,1.05,0,100.0,0.0,1.0,0.0,0.0,1.0,1,100.0,180.0,110.0,1,1.0,0,1.0,0,1.0,0,1.0,0,1.0
3134,'G3',204.122,32.041,183.3,-98.6,1.05,0,100.0,0.0,1.0,0.0,0.0,1.0,1,100.0,295.7,135.0,1,1.0,0,1.0,0,1.0,0,1.0,0,1.0
3135,'G2',178.978,31.379,110.9,-59.7,1.05,0,100.0,0.0,1.0,0.0,0.0,1.0,1,100.0,179.0,90.0,1,1.0,0,1.0,0,1.0,0,1.0,0,1.0
3136,'G1',178.978,31.379,110.9,-59.7,1.05,0,100.0,0.0,1.0,0.0,0.0,1.0,1,100.0,179.0,90.0,1,1.0,0,1.0,0,1.0,0,1.0,0,1.0
3139,'U1',32.936,22.871,70.4,-37.9,1.05,0,100.0,0.0,1.0,0.0,0.0,1.0,1,100.0,113.6,30.0,1,1.0,0,1.0,0,1.0,0,1.0,0,1.0
3139,'U2',59.993,22.871,37.2,-20.0,1.05,0,100.0,0.0,1.0,0.0,0.0,1.0,1,100.0,60.0,25.0,1,1.0,0,1.0,0,1.0,0,1.0,0,1.0
3139,'U3',59.993,22.871,37.2,-20.0,1.05,0,100.0,0.0,1.0,0.0,0.0,1.0,1,100.0,60.0,25.0,1,1.0,0,1.0,0,1.0,0,1.0,0,1.0
3141,'G2',185.577,115.0,115.0,-61.9,1.05,0,100.0,0.0,1.0,0.0,0.0,1.0,1,100.0,185.6,105.0,1,1.0,0,1.0,0,1.0,0,1.0,0,1.0
3142,'G1',234.271,113.5,113.5,-78.1,1.05,0,100.0,0.0,1.0,0.0,0.0,1.0,1,100.0,234.3,70.0,1,1.0,0,1.0,0,1.0,0,1.0,0,1.0
3143,'G3',185.577,115.0,115.0,-61.9,1.05,0,100.0,0.0,1.0,0.0,0.0,1.0,1,100.0,185.6,105.0,1,1.0,0,1.0,0,1.0,0,1.0,0,1.0
3146,'U1',21.163,16.973,27.9,-15.0,1.05,0,100.0,0.0,1.0,0.0,0.0,1.0,1,100.0,45.0,20.0,1,1.0,0,1.0,0,1.0,0,1.0,0,1.0
3146,'U2',21.163,16.973,27.9,-15.0,1.05,0,100.0,0.0,1.0,0.0,0.0,1.0,1,100.0,45.0,20.0,1,1.0,0,1.0,0,1.0,0,1.0,0,1.0
3146,'U3',21.163,16.973,27.9,-15.0,1.05,0,100.0,0.0,1.0,0.0,0.0,1.0,1,100.0,45.0,20.0,1,1.0,0,1.0,0,1.0,0,1.0,0,1.0
3148,'U1',31.296,10.95,10.95,0.0,1.05,0,100.0,0.0,1.0,0.0,0.0,1.0,1,100.0,31.3,6.0,1,1.0,0,1.0,0,1.0,0,1.0,0,1.0
3151,'U1',23.997,18.0,18.0,-8.0,1.05,0,100.0,0.0,1.0,0.0,0.0,1.0,1,100.0,24.0,1.0,1,1.0,0,1.0,0,1.0,0,1.0,0,1.0
3153,'G2',200.002,102.144,172.7,-92.9,1.05,0,100.0,0.0,1.0,0.0,0.0,1.0,1,100.0,278.6,140.0,1,1.0,0,1.0,0,1.0,0,1.0,0,1.0
3154,'G1',200.002,102.144,172.7,-92.9,1.05,0,100.0,0.0,1.0,0.0,0.0,1.0,1,100.0,278.6,140.0,1,1.0,0,1.0,0,1.0,0,1.0,0,1.0
3155,'G3',200.158,102.149,195.2,-105.0,1.05,0,100.0,0.0,1.0,0.0,0.0,1.0,1,100.0,315.0,75.0,1,1.0,0,1.0,0,1.0,0,1.0,0,1.0
...
0 / END OF GENERATOR DATA BEGIN BRANCH DATA
1,4,'L1',0.000512,0.00384,0.00101,159.0,166.9,174.9,0.0,0.0,0.0,0.0,1,1,0.96,1,1.0,0,1.0,0,1.0,0,1.0
2,86,'L1',0.00126,0.02205,0.2362,1046.0,1098.3,1150.6,0.0,0.0,0.0,0.0,1,1,35.01,1,1.0,0,1.0,0,1.0,0,1.0
3,4,'L1',0.00173733,0.01303,0.00334,175.0,183.7,192.5,0.0,0.0,0.0,0.0,1,1,3.22,1,1.0,0,1.0,0,1.0,0,1.0
3,49,'L1',0.00418667,0.0314,0.00983,142.0,149.1,156.2,0.0,0.0,0.0,0.0,1,1,8.49,1,1.0,0,1.0,0,1.0,0,1.0
5,8,'L1',0.000353333,0.00265,0.0006,142.0,149.1,156.2,0.0,0.0,0.0,0.0,1,1,0.61,1,1.0,0,1.0,0,1.0,0,1.0
6,11,'L1',0.00147733,0.01108,0.0025,142.0,149.1,156.2,0.0,0.0,0.0,0.0,1,1,2.55,1,1.0,0,1.0,0,1.0,0,1.0
7,8,'L1',0.000414667,0.00311,0.00078,243.0,243.0,243.0,0.0,0.0,0.0,0.0,1,1,0.76,1,1.0,0,1.0,0,1.0,0,1.0
7,8,'L2',0.000414667,0.00311,0.00078,243.0,243.0,243.0,0.0,0.0,0.0,0.0,1,1,0.76,1,1.0,0,1.0,0,1.0,0,1.0
7,10,'L1',0.00148667,0.01115,0.00272,243.0,243.0,243.0,0.0,0.0,0.0,0.0,1,1,2.69,1,1.0,0,1.0,0,1.0,0,1.0
7,10,'L2',0.00148667,0.01115,0.00272,243.0,243.0,243.0,0.0,0.0,0.0,0.0,1,1,2.69,1,1.0,0,1.0,0,1.0,0,1.0
8,9,'L1',0.00207733,0.01558,0.00351,159.0,166.9,174.9,0.0,0.0,0.0,0.0,1,1,3.6,1,1.0,0,1.0,0,1.0,0,1.0
9,12,'L1',0.00176267,0.01322,0.00329,142.0,149.1,156.2,0.0,0.0,0.0,0.0,1,1,3.2,1,1.0,0,1.0,0,1.0,0,1.0
11,16,'L1',0.00257333,0.0193,0.00414,142.0,149.1,156.2,0.0,0.0,0.0,0.0,1,1,4.34,1,1.0,0,1.0,0,1.0,0,1.0
12,13,'L1',0.00160933,0.01207,0.00273,118.0,123.9,129.8,0.0,0.0,0.0,0.0,1,1,2.81,1,1.0,0,1.0,0,1.0,0,1.0
12,14,'L1',0.00255867,0.01919,0.00432,128.0,134.4,140.8,0.0,0.0,0.0,0.0,1,1,4.42,1,1.0,0,1.0,0,1.0,0,1.0
14,42,'L1',0.00496533,0.03724,0.00816,128.0,134.4,140.8,0.0,0.0,0.0,0.0,1,1,8.46,1,1.0,0,1.0,0,1.0,0,1.0
15,16,'L1',0.00394667,0.0296,0.00746,159.0,166.9,174.9,0.0,0.0,0.0,0.0,1,1,7.23,1,1.0,0,1.0,0,1.0,0,1.0
17,19,'L1',0.0228613,0.17146,0.04168,118.0,123.9,129.8,0.0,0.0,0.0,0.0,1,1,41.16,1,1.0,0,1.0,0,1.0,0,1.0
21,22,'L1',0.0164293,0.12322,0.0154,144.0,144.0,144.0,0.0,0.0,0.0,0.0,1,1,22.0,1,1.0,0,1.0,0,1.0,0,1.0
22,110,'L1',0.0172347,0.12926,0.03121,128.0,134.4,140.8,0.0,0.0,0.0,0.0,1,1,30.83,1,1.0,0,1.0,0,1.0,0,1.0
23,28,'L1',0.000658667,0.00494,0.00134,205.0,215.2,225.5,0.0,0.0,0.0,0.0,1,1,1.25,1,1.0,0,1.0,0,1.0,0,1.0
23,29,'L1',0.00166133,0.01246,0.00339,205.0,215.2,225.5,0.0,0.0,0.0,0.0,1,1,3.17,1,1.0,0,1.0,0,1.0,0,1.0
24,28,'L1',0.000610667,0.00458,0.00107,118.0,123.9,129.8,0.0,0.0,0.0,0.0,1,1,1.08,1,1.0,0,1.0,0,1.0,0,1.0
25,26,'L1',0.000902667,0.00677,0.00174,128.0,134.4,140.8,0.0,0.0,0.0,0.0,1,1,1.67,1,1.0,0,1.0,0,1.0,0,1.0
26,28,'L1',0.000638667,0.00479,0.00115,142.0,149.1,156.2,0.0,0.0,0.0,0.0,1,1,1.14,1,1.0,0,1.0,0,1.0,0,1.0
27,30,'L1',0.00011,0.0019,0.01955,1046.0,1098.3,1150.6,0.0,0.0,0.0,0.0,1,1,2.96,1,1.0,0,1.0,0,1.0,0,1.0
29,39,'L1',0.00221867,0.01664,0.0038,175.0,183.7,192.5,0.0,0.0,0.0,0.0,1,1,3.89,1,1.0,0,1.0,0,1.0,0,1.0
31,32,'L1',0.001652,0.01239,0.00283,175.0,183.7,192.5,0.0,0.0,0.0,0.0,1,1,2.89,1,1.0,0,1.0,0,1.0,0,1.0
32,33,'L1',0.000886667,0.00665,0.0016,219.0,229.9,240.9,0.0,0.0,0.0,0.0,1,1,1.59,1,1.0,0,1.0,0,1.0,0,1.0
35,53,'L1',0.00245067,0.01838,0.00435,159.0,166.9,174.9,0.0,0.0,0.0,0.0,1,1,4.36,1,1.0,0,1.0,0,1.0,0,1.0
36,37,'L1',0.000522667,0.00392,0.00099,159.0,166.9,174.9,0.0,0.0,0.0,0.0,1,1,0.96,1,1.0,0,1.0,0,1.0,0,1.0
37,39,'L1',0.000989333,0.00742,0.00187,159.0,166.9,174.9,0.0,0.0,0.0,0.0,1,1,1.82,1,1.0,0,1.0,0,1.0,0,1.0
38,36,'L1',0.00130667,0.0098,0.00123,144.0,144.0,144.0,0.0,0.0,0.0,0.0,1,1,1.77,1,1.0,0,1.0,0,1.0,0,1.0
40,41,'L1',0.001028,0.00771,0.00192,142.0,149.1,156.2,0.0,0.0,0.0,0.0,1,1,1.87,1,1.0,0,1.0,0,1.0,0,1.0
41,50,'L1',0.00468133,0.03511,0.00904,128.0,134.4,140.8,0.0,0.0,0.0,0.0,1,1,8.63,1,1.0,0,1.0,0,1.0,0,1.0
41,138,'L1',0.00276133,0.02071,0.00485,118.0,123.9,129.8,0.0,0.0,0.0,0.0,1,1,4.89,1,1.0,0,1.0,0,1.0,0,1.0
42,51,'L1',0.00243,0.02018,0.00789,284.0,298.2,312.4,0.0,0.0,0.0,0.0,1,1,6.11,1,1.0,0,1.0,0,1.0,0,1.0
43,44,'L1',0.00145733,0.01093,0.00256,118.0,123.9,129.8,0.0,0.0,0.0,0.0,1,1,2.58,1,1.0,0,1.0,0,1.0,0,1.0
43,45,'L1',0.00207067,0.01553,0.00364,118.0,123.9,129.8,0.0,0.0,0.0,0.0,1,1,3.67,1,1.0,0,1.0,0,1.0,0,1.0
44,49,'L1',0.003116,0.02337,0.0053,118.0,123.9,129.8,0.0,0.0,0.0,0.0,1,1,5.42,1,1.0,0,1.0,0,1.0,0,1.0
46,48,'L1',0.00143333,0.01075,0.00259,128.0,134.4,140.8,0.0,0.0,0.0,0.0,1,1,2.57,1,1.0,0,1.0,0,1.0,0,1.0
46,52,'L1',0.00249,0.02161,0.00776,284.0,298.2,312.4,0.0,0.0,0.0,0.0,1,1,6.26,1,1.0,0,1.0,0,1.0,0,1.0
46,117,'L1',0.00243733,0.01828,0.00486,175.0,183.7,192.5,0.0,0.0,0.0,0.0,1,1,4.61,1,1.0,0,1.0,0,1.0,0,1.0
46,118,'L1',0.002204,0.01653,0.00423,175.0,183.7,192.5,0.0,0.0,0.0,0.0,1,1,4.1,1,1.0,0,1.0,0,1.0,0,1.0
47,127,'L1',0.00312,0.04326,0.4339,868.0,911.4,954.8,0.0,0.0,0.0,0.0,1,1,66.72,1,1.0,0,1.0,0,1.0,0,1.0
51,52,'L1',0.00128,0.01193,0.00369,284.0,298.2,312.4,0.0,0.0,0.0,0.0,1,1,3.22,1,1.0,0,1.0,0,1.0,0,1.0
53,136,'L1',0.00299333,0.02245,0.00556,175.0,183.7,192.5,0.0,0.0,0.0,0.0,1,1,5.46,1,1.0,0,1.0,0,1.0,0,1.0
54,407,'L1',0.01999,0.14099,0.24207,366.0,384.3,402.6,0.0,0.0,0.0,0.0,1,1,89.89,1,1.0,0,1.0,0,1.0,0,1.0
56,59,'L1',0.015948,0.11961,0.03081,128.0,134.4,140.8,0.0,0.0,0.0,0.0,1,1,29.49,1,1.0,0,1.0,0,1.0,0,1.0
57,58,'L1',0.00330533,0.02479,0.00517,128.0,134.4,140.8,0.0,0.0,0.0,0.0,1,1,5.51,1,1.0,0,1.0,0,1.0,0,1.0
58,101,'L1',0.00871467,0.06536,0.01364,128.0,134.4,140.8,0.0,0.0,0.0,0.0,1,1,14.51,1,1.0,0,1.0,0,1.0,0,1.0
61,74,'L1',0.00490267,0.03677,0.00855,128.0,134.4,140.8,0.0,0.0,0.0,0.0,1,1,8.63,1,1.0,0,1.0,0,1.0,0,1.0
62,74,'L1',0.00370267,0.02777,0.00612,118.0,123.9,129.8,0.0,0.0,0.0,0.0,1,1,6.35,1,1.0,0,1.0,0,1.0,0,1.0
62,131,'L1',0.00693067,0.05198,0.01178,118.0,123.9,129.8,0.0,0.0,0.0,0.0,1,1,12.07,1,1.0,0,1.0,0,1.0,0,1.0
63,64,'L1',0.00298667,0.0224,0.00524,118.0,123.9,129.8,0.0,0.0,0.0,0.0,1,1,5.27,1,1.0,0,1.0,0,1.0,0,1.0
63,121,'L1',0.00455467,0.03416,0.00885,122.0,122.0,122.0,0.0,0.0,0.0,0.0,1,1,8.47,1,1.0,0,1.0,0,1.0,0,1.0
64,65,'L1',0.0027,0.02025,0.00492,118.0,123.9,129.8,0.0,0.0,0.0,0.0,1,1,4.87,1,1.0,0,1.0,0,1.0,0,1.0
65,66,'L1',0.00160133,0.01201,0.00265,118.0,123.9,129.8,0.0,0.0,0.0,0.0,1,1,2.75,1,1.0,0,1.0,0,1.0,0,1.0
67,68,'L1',0.000949333,0.00712,0.00161,118.0,123.9,129.8,0.0,0.0,0.0,0.0,1,1,1.65,1,1.0,0,1.0,0,1.0,0,1.0
67,125,'L1',0.002756,0.02067,0.00484,118.0,123.9,129.8,0.0,0.0,0.0,0.0,1,1,4.87,1,1.0,0,1.0,0,1.0,0,1.0
68,69,'L1',0.001312,0.00984,0.00205,128.0,134.4,140.8,0.0,0.0,0.0,0.0,1,1,2.19,1,1.0,0,1.0,0,1.0,0,1.0
70,72,'L1',0.00204533,0.01534,0.00395,128.0,134.4,140.8,0.0,0.0,0.0,0.0,1,1,3.77,1,1.0,0,1.0,0,1.0,0,1.0
70,130,'L1',0.003984,0.02988,0.00716,142.0,149.1,156.2,0.0,0.0,0.0,0.0,1,1,7.09,1,1.0,0,1.0,0,1.0,0,1.0
71,73,'L1',0.00252,0.0189,0.00476,159.0,166.9,174.9,0.0,0.0,0.0,0.0,1,1,4.62,1,1.0,0,1.0,0,1.0,0,1.0
71,75,'L1',0.00332,0.02612,0.00764,250.0,262.5,275.0,0.0,0.0,0.0,0.0,1,1,6.87,1,1.0,0,1.0,0,1.0,0,1.0
71,128,'L1',0.0180347,0.13526,0.03411,159.0,166.9,174.9,0.0,0.0,0.0,0.0,1,1,33.04,1,1.0,0,1.0,0,1.0,0,1.0
72,73,'L1',0.00177467,0.01331,0.00342,128.0,134.4,140.8,0.0,0.0,0.0,0.0,1,1,3.27,1,1.0,0,1.0,0,1.0,0,1.0
75,76,'L1',0.003464,0.02598,0.00655,159.0,166.9,174.9,0.0,0.0,0.0,0.0,1,1,6.35,1,1.0,0,1.0,0,1.0,0,1.0
75,79,'L1',0.00665867,0.04994,0.01258,159.0,166.9,174.9,0.0,0.0,0.0,0.0,1,1,12.19,1,1.0,0,1.0,0,1.0,0,1.0
76,77,'L1',0.00333067,0.02498,0.00699,159.0,166.9,174.9,0.0,0.0,0.0,0.0,1,1,6.44,1,1.0,0,1.0,0,1.0,0,1.0
77,78,'L1',0.003004,0.02253,0.00568,159.0,166.9,174.9,0.0,0.0,0.0,0.0,1,1,5.51,1,1.0,0,1.0,0,1.0,0,1.0
78,117,'L1',0.00509867,0.03824,0.00861,159.0,166.9,174.9,0.0,0.0,0.0,0.0,1,1,8.84,1,1.0,0,1.0,0,1.0,0,1.0
79,80,'L1',0.00250667,0.0188,0.00474,159.0,166.9,174.9,0.0,0.0,0.0,0.0,1,1,4.6,1,1.0,0,1.0,0,1.0,0,1.0
80,81,'L1',0.002336,0.01752,0.00427,159.0,166.9,174.9,0.0,0.0,0.0,0.0,1,1,4.21,1,1.0,0,1.0,0,1.0,0,1.0
81,82,'L1',0.00204133,0.01531,0.004,159.0,166.9,174.9,0.0,0.0,0.0,0.0,1,1,3.8,1,1.0,0,1.0,0,1.0,0,1.0
82,118,'L1',0.00518933,0.03892,0.01018,159.0,166.9,174.9,0.0,0.0,0.0,0.0,1,1,9.7,1,1.0,0,1.0,0,1.0,0,1.0
83,84,'L1',0.0106987,0.08024,0.01879,118.0,123.9,129.8,0.0,0.0,0.0,0.0,1,1,18.93,1,1.0,0,1.0,0,1.0,0,1.0
83,777,'L1',0.015096,0.11322,0.02549,159.0,166.9,174.9,0.0,0.0,0.0,0.0,1,1,26.22,1,1.0,0,1.0,0,1.0,0,1.0
85,84,'L1',0.00933333,0.07,0.016,142.0,149.1,156.2,0.0,0.0,0.0,0.0,1,1,10.79,1,1.0,0,1.0,0,1.0,0,1.0
85,91,'L1',0.0103307,0.07748,0.02062,175.0,183.7,192.5,0.0,0.0,0.0,0.0,1,1,19.51,1,1.0,0,1.0,0,1.0,0,1.0
87,88,'L1',0.00474267,0.03557,0.00763,142.0,149.1,156.2,0.0,0.0,0.0,0.0,1,1,8.0,1,1.0,0,1.0,0,1.0,0,1.0
88,89,'L1',0.00462133,0.03466,0.00907,159.0,166.9,174.9,0.0,0.0,0.0,0.0,1,1,8.63,1,1.0,0,1.0,0,1.0,0,1.0
89,90,'L1',0.00314133,0.02356,0.00593,159.0,166.9,174.9,0.0,0.0,0.0,0.0,1,1,5.75,1,1.0,0,1.0,0,1.0,0,1.0
90,91,'L1',0.00322533,0.02419,0.00633,159.0,166.9,174.9,0.0,0.0,0.0,0.0,1,1,6.03,1,1.0,0,1.0,0,1.0,0,1.0
92,93,'L1',0.0009,0.00675,0.0017,277.0,277.0,277.0,0.0,0.0,0.0,0.0,1,1,1.65,1,1.0,0,1.0,0,1.0,0,1.0
92,94,'L1',0.000465333,0.00349,0.00088,177.0,211.0,211.0,0.0,0.0,0.0,0.0,1,1,0.85,1,1.0,0,1.0,0,1.0,0,1.0
93,111,'L1',0.001464,0.01098,0.00247,142.0,149.1,156.2,0.0,0.0,0.0,0.0,1,1,2.53,1,1.0,0,1.0,0,1.0,0,1.0
94,95,'L1',0.000412,0.00309,0.00078,177.0,211.0,211.0,0.0,0.0,0.0,0.0,1,1,0.76,1,1.0,0,1.0,0,1.0,0,1.0
95,97,'L1',0.000813333,0.0061,0.00154,177.0,211.0,211.0,0.0,0.0,0.0,0.0,1,1,1.49,1,1.0,0,1.0,0,1.0,0,1.0
97,98,'L1',0.003024,0.02268,0.00601,230.0,241.5,253.0,0.0,0.0,0.0,0.0,1,1,5.67,1,1.0,0,1.0,0,1.0,0,1.0
97,102,'L1',0.00250533,0.01879,0.00499,142.0,149.1,156.2,0.0,0.0,0.0,0.0,1,1,4.7,1,1.0,0,1.0,0,1.0,0,1.0
98,121,'L1',0.014508,0.10881,0.02849,159.0,166.9,174.9,0.0,0.0,0.0,0.0,1,1,27.14,1,1.0,0,1.0,0,1.0,0,1.0
99,100,'L1',0.00429467,0.03221,0.00844,219.0,229.9,240.9,0.0,0.0,0.0,0.0,1,1,8.0,1,1.0,0,1.0,0,1.0,0,1.0
102,103,'L1',0.00361867,0.02714,0.00594,128.0,134.4,140.8,0.0,0.0,0.0,0.0,1,1,6.19,1,1.0,0,1.0,0,1.0,0,1.0
103,104,'L1',0.00468533,0.03514,0.00865,128.0,134.4,140.8,0.0,0.0,0.0,0.0,1,1,8.47,1,1.0,0,1.0,0,1.0,0,1.0
104,132,'L1',0.00524667,0.03935,0.00892,118.0,123.9,129.8,0.0,0.0,0.0,0.0,1,1,9.14,1,1.0,0,1.0,0,1.0,0,1.0
105,112,'L1',0.00715867,0.05369,0.01257,118.0,123.9,129.8,0.0,0.0,0.0,0.0,1,1,12.68,1,1.0,0,1.0,0,1.0,0,1.0
105,114,'L1',0.00580667,0.04355,0.01019,118.0,123.9,129.8,0.0,0.0,0.0,0.0,1,1,10.26,1,1.0,0,1.0,0,1.0,0,1.0
105,119,'L1',0.00431867,0.03239,0.0073,128.0,134.4,140.8,0.0,0.0,0.0,0.0,1,1,7.48,1,1.0,0,1.0,0,1.0,0,1.0
106,112,'L1',0.003656,0.02742,0.00604,118.0,123.9,129.8,0.0,0.0,0.0,0.0,1,1,6.29,1,1.0,0,1.0,0,1.0,0,1.0
108,113,'L1',0.0173707,0.13028,0.02955,118.0,123.9,129.8,0.0,0.0,0.0,0.0,1,1,30.31,1,1.0,0,1.0,0,1.0,0,1.0
108,3288,'L1',0.0130453,0.09784,0.01223,144.0,144.0,144.0,0.0,0.0,0.0,0.0,1,1,17.42,1,1.0,0,1.0,0,1.0,0,1.0
113,3288,'L1',0.0269427,0.20207,0.02526,144.0,144.0,144.0,0.0,0.0,0.0,0.0,1,1,36.04,1,1.0,0,1.0,0,1.0,0,1.0
115,116,'L1',0.00559467,0.04196,0.01018,118.0,123.9,129.8,0.0,0.0,0.0,0.0,1,1,10.06,1,1.0,0,1.0,0,1.0,0,1.0
119,120,'L1',0.00502267,0.03767,0.00914,118.0,123.9,129.8,0.0,0.0,0.0,0.0,1,1,9.04,1,1.0,0,1.0,0,1.0,0,1.0
120,123,'L1',0.00515333,0.03865,0.00905,118.0,123.9,129.8,0.0,0.0,0.0,0.0,1,1,9.12,1,1.0,0,1.0,0,1.0,0,1.0
122,123,'L1',0.00559733,0.04198,0.00525,144.0,144.0,144.0,0.0,0.0,0.0,0.0,1,1,7.53,1,1.0,0,1.0,0,1.0,0,1.0
122,126,'L1',0.00404267,0.03032,0.00736,118.0,123.9,129.8,0.0,0.0,0.0,0.0,1,1,7.27,1,1.0,0,1.0,0,1.0,0,1.0
123,124,'L1',0.001972,0.01479,0.00451,118.0,123.9,129.8,0.0,0.0,0.0,0.0,1,1,3.97,1,1.0,0,1.0,0,1.0,0,1.0
126,124,'L1',0.00540933,0.04057,0.00507,144.0,144.0,144.0,0.0,0.0,0.0,0.0,1,1,7.28,1,1.0,0,1.0,0,1.0,0,1.0
128,129,'L1',0.00532933,0.03997,0.01068,159.0,166.9,174.9,0.0,0.0,0.0,0.0,1,1,10.05,1,1.0,0,1.0,0,1.0,0,1.0
129,130,'L1',0.00439067,0.03293,0.00742,142.0,149.1,156.2,0.0,0.0,0.0,0.0,1,1,7.58,1,1.0,0,1.0,0,1.0,0,1.0
131,132,'L1',0.00856933,0.06427,0.01505,118.0,123.9,129.8,0.0,0.0,0.0,0.0,1,1,15.14,1,1.0,0,1.0,0,1.0,0,1.0
134,3202,'L1',0.0155667,0.11675,0.01459,144.0,144.0,144.0,0.0,0.0,0.0,0.0,1,1,20.84,1,1.0,0,1.0,0,1.0,0,1.0
136,137,'L1',0.001208,0.00906,0.00263,185.0,194.2,203.5,0.0,0.0,0.0,0.0,1,1,2.37,1,1.0,0,1.0,0,1.0,0,1.0
137,142,'L1',0.00159467,0.01196,0.00282,193.0,202.6,212.3,0.0,0.0,0.0,0.0,1,1,2.83,1,1.0,0,1.0,0,1.0,0,1.0
137,143,'L1',0.000776,0.00582,0.00147,159.0,166.9,174.9,0.0,0.0,0.0,0.0,1,1,1.42,1,1.0,0,1.0,0,1.0,0,1.0
138,139,'L1',0.002208,0.01656,0.00504,118.0,123.9,129.8,0.0,0.0,0.0,0.0,1,1,4.45,1,1.0,0,1.0,0,1.0,0,1.0
139,141,'L1',0.00346133,0.02596,0.00545,118.0,123.9,129.8,0.0,0.0,0.0,0.0,1,1,5.81,1,1.0,0,1.0,0,1.0,0,1.0
140,141,'L1',0.004428,0.03321,0.00806,118.0,123.9,129.8,0.0,0.0,0.0,0.0,1,1,7.99,1,1.0,0,1.0,0,1.0,0,1.0
...